<?xml version="1.0" encoding="UTF-8"?>

<!-- generated on 2024-02-18 14:22:21 by Eclipse SUMO netedit Version 1.18.0
<configuration xmlns:xsi="http://www.w3.org/2001/XMLSchema-instance" xsi:noNamespaceSchemaLocation="http://sumo.dlr.de/xsd/neteditConfiguration.xsd">

    <input>
        <sumo-net-file value="/home/don/src/projects/sumo-paper-grid/sumo-safety-traci-project/scenario8/safety.net.xml"/>
    </input>

    <output>
        <output-file value="/home/don/src/projects/sumo-paper-grid/sumo-safety-traci-project/scenario8/safety.net.xml"/>
    </output>

    <processing>
        <offset.disable-normalization value="true"/>
        <opposites.guess value="false"/>
        <lefthand value="true"/>
    </processing>

    <junctions>
        <no-turnarounds value="true"/>
    </junctions>

    <netedit>
        <new-network value="false"/>
    </netedit>

</configuration>
-->

<net version="1.16" junctionCornerDetail="5" lefthand="true" limitTurnSpeed="5.50" xmlns:xsi="http://www.w3.org/2001/XMLSchema-instance" xsi:noNamespaceSchemaLocation="http://sumo.dlr.de/xsd/net_file.xsd">

    <location netOffset="0.00,-0.00" convBoundary="0.00,0.00,3000.00,0.00" origBoundary="10000000000.00,10000000000.00,-10000000000.00,-10000000000.00" projParameter="!"/>

    <edge id=":J1_0" function="internal">
        <lane id=":J1_0_0" index="0" speed="31.31" length="0.10" shape="500.00,-4.80 500.00,-4.80"/>
        <lane id=":J1_0_1" index="1" speed="31.31" length="0.10" shape="500.00,-1.60 500.00,-1.60"/>
    </edge>
    <edge id=":J1_2" function="internal">
        <lane id=":J1_2_0" index="0" speed="31.31" length="0.10" shape="500.00,4.80 500.00,4.80"/>
        <lane id=":J1_2_1" index="1" speed="31.31" length="0.10" shape="500.00,1.60 500.00,1.60"/>
    </edge>
    <edge id=":J2_0" function="internal">
        <lane id=":J2_0_0" index="0" speed="31.31" length="0.10" shape="2500.00,-4.80 2500.00,-4.80"/>
        <lane id=":J2_0_1" index="1" speed="31.31" length="0.10" shape="2500.00,-1.60 2500.00,-1.60"/>
    </edge>
    <edge id=":J2_2" function="internal">
        <lane id=":J2_2_0" index="0" speed="31.31" length="0.10" shape="2500.00,4.80 2500.00,4.80"/>
        <lane id=":J2_2_1" index="1" speed="31.31" length="0.10" shape="2500.00,1.60 2500.00,1.60"/>
    </edge>

    <edge id="-E0" from="J1" to="J0" priority="-1">
        <lane id="-E0_0" index="0" speed="31.31" length="500.00" shape="500.00,-4.80 0.00,-4.80"/>
        <lane id="-E0_1" index="1" speed="31.31" length="500.00" shape="500.00,-1.60 0.00,-1.60"/>
    </edge>
    <edge id="-E1" from="J2" to="J1" priority="-1">
        <lane id="-E1_0" index="0" speed="31.31" length="2000.00" shape="2500.00,-4.80 500.00,-4.80"/>
        <lane id="-E1_1" index="1" speed="31.31" length="2000.00" shape="2500.00,-1.60 500.00,-1.60"/>
    </edge>
    <edge id="-E2" from="J3" to="J2" priority="-1">
        <lane id="-E2_0" index="0" speed="31.31" length="500.00" shape="3000.00,-4.80 2500.00,-4.80"/>
        <lane id="-E2_1" index="1" speed="31.31" length="500.00" shape="3000.00,-1.60 2500.00,-1.60"/>
    </edge>
    <edge id="E0" from="J0" to="J1" priority="-1">
        <lane id="E0_0" index="0" speed="31.31" length="500.00" shape="0.00,4.80 500.00,4.80"/>
        <lane id="E0_1" index="1" speed="31.31" length="500.00" shape="0.00,1.60 500.00,1.60"/>
    </edge>
    <edge id="E1" from="J1" to="J2" priority="-1">
        <lane id="E1_0" index="0" speed="31.31" length="2000.00" shape="500.00,4.80 2500.00,4.80"/>
        <lane id="E1_1" index="1" speed="31.31" length="2000.00" shape="500.00,1.60 2500.00,1.60"/>
    </edge>
    <edge id="E2" from="J2" to="J3" priority="-1">
        <lane id="E2_0" index="0" speed="31.31" length="500.00" shape="2500.00,4.80 3000.00,4.80"/>
        <lane id="E2_1" index="1" speed="31.31" length="500.00" shape="2500.00,1.60 3000.00,1.60"/>
    </edge>

    <junction id="J0" type="dead_end" x="0.00" y="0.00" incLanes="-E0_0 -E0_1" intLanes="" shape="0.00,-0.00 0.00,-6.40 0.00,-0.00"/>
    <junction id="J1" type="priority" x="500.00" y="0.00" incLanes="-E1_0 -E1_1 E0_0 E0_1" intLanes=":J1_0_0 :J1_0_1 :J1_2_0 :J1_2_1" shape="500.00,-6.40 500.00,6.40 500.00,-6.40">
        <request index="0" response="0000" foes="0000" cont="0"/>
        <request index="1" response="0000" foes="0000" cont="0"/>
        <request index="2" response="0000" foes="0000" cont="0"/>
        <request index="3" response="0000" foes="0000" cont="0"/>
    </junction>
    <junction id="J2" type="priority" x="2500.00" y="0.00" incLanes="-E2_0 -E2_1 E1_0 E1_1" intLanes=":J2_0_0 :J2_0_1 :J2_2_0 :J2_2_1" shape="2500.00,-6.40 2500.00,6.40 2500.00,-6.40">
        <request index="0" response="0000" foes="0000" cont="0"/>
        <request index="1" response="0000" foes="0000" cont="0"/>
        <request index="2" response="0000" foes="0000" cont="0"/>
        <request index="3" response="0000" foes="0000" cont="0"/>
    </junction>
    <junction id="J3" type="dead_end" x="3000.00" y="0.00" incLanes="E2_0 E2_1" intLanes="" shape="3000.00,-0.00 3000.00,6.40 3000.00,-0.00"/>

    <connection from="-E1" to="-E0" fromLane="0" toLane="0" via=":J1_0_0" dir="s" state="M"/>
    <connection from="-E1" to="-E0" fromLane="1" toLane="1" via=":J1_0_1" dir="s" state="M"/>
    <connection from="-E2" to="-E1" fromLane="0" toLane="0" via=":J2_0_0" dir="s" state="M"/>
    <connection from="-E2" to="-E1" fromLane="1" toLane="1" via=":J2_0_1" dir="s" state="M"/>
    <connection from="E0" to="E1" fromLane="0" toLane="0" via=":J1_2_0" dir="s" state="M"/>
    <connection from="E0" to="E1" fromLane="1" toLane="1" via=":J1_2_1" dir="s" state="M"/>
    <connection from="E1" to="E2" fromLane="0" toLane="0" via=":J2_2_0" dir="s" state="M"/>
    <connection from="E1" to="E2" fromLane="1" toLane="1" via=":J2_2_1" dir="s" state="M"/>

    <connection from=":J1_0" to="-E0" fromLane="0" toLane="0" dir="s" state="M"/>
    <connection from=":J1_0" to="-E0" fromLane="1" toLane="1" dir="s" state="M"/>
    <connection from=":J1_2" to="E1" fromLane="0" toLane="0" dir="s" state="M"/>
    <connection from=":J1_2" to="E1" fromLane="1" toLane="1" dir="s" state="M"/>
    <connection from=":J2_0" to="-E1" fromLane="0" toLane="0" dir="s" state="M"/>
    <connection from=":J2_0" to="-E1" fromLane="1" toLane="1" dir="s" state="M"/>
    <connection from=":J2_2" to="E2" fromLane="0" toLane="0" dir="s" state="M"/>
    <connection from=":J2_2" to="E2" fromLane="1" toLane="1" dir="s" state="M"/>

</net>
