<configuration>
    <input>
        <net-file value="safety.net.xml"/>
        <route-files value="safety.rou.xml"/>
    </input>

    <gui_only>
        <gui-settings-file value="gui-settings.xml"/>
    </gui_only>

    <random_number>
        <seed value="23423"/>
    </random_number>

    <time>
        <begin value="0"/>
        <end value="60"/>
        <!-- <step-method.ballistic value="True"/> -->
        <step-length value="0.001"/>
        <default.action-step-length value="1"/>
    </time>

    <processing>
        <collision.mingap-factor value="0"/>
        <collision.action value="remove"/>
        <collision.stoptime value="60"/>
        <!-- <time-to-teleport value="-1"/> -->
    </processing>

    <output>
        <collision-output value="collisions.xml"/>
    </output>
</configuration>
