<additional>
    <e1Detector id="E1_0_0m" lane="E1_0" pos="0" freq="1" file="detector_output.xml"/>
    <e1Detector id="E1_1_0m" lane="E1_1" pos="0" freq="1" file="detector_output.xml"/>
    <e1Detector id="E1_0_100m" lane="E1_0" pos="100" freq="1" file="detector_output.xml"/>
    <e1Detector id="E1_1_100m" lane="E1_1" pos="100" freq="1" file="detector_output.xml"/>
    <e1Detector id="E1_0_200m" lane="E1_0" pos="200" freq="1" file="detector_output.xml"/>
    <e1Detector id="E1_1_200m" lane="E1_1" pos="200" freq="1" file="detector_output.xml"/>
    <e1Detector id="E1_0_300m" lane="E1_0" pos="300" freq="1" file="detector_output.xml"/>
    <e1Detector id="E1_1_300m" lane="E1_1" pos="300" freq="1" file="detector_output.xml"/>
    <e1Detector id="E1_0_400m" lane="E1_0" pos="400" freq="1" file="detector_output.xml"/>
    <e1Detector id="E1_1_400m" lane="E1_1" pos="400" freq="1" file="detector_output.xml"/>
    <e1Detector id="E1_0_500m" lane="E1_0" pos="500" freq="1" file="detector_output.xml"/>
    <e1Detector id="E1_1_500m" lane="E1_1" pos="500" freq="1" file="detector_output.xml"/>
    <e1Detector id="E1_0_600m" lane="E1_0" pos="600" freq="1" file="detector_output.xml"/>
    <e1Detector id="E1_1_600m" lane="E1_1" pos="600" freq="1" file="detector_output.xml"/>
    <e1Detector id="E1_0_700m" lane="E1_0" pos="700" freq="1" file="detector_output.xml"/>
    <e1Detector id="E1_1_700m" lane="E1_1" pos="700" freq="1" file="detector_output.xml"/>
    <e1Detector id="E1_0_800m" lane="E1_0" pos="800" freq="1" file="detector_output.xml"/>
    <e1Detector id="E1_1_800m" lane="E1_1" pos="800" freq="1" file="detector_output.xml"/>
    <e1Detector id="E1_0_900m" lane="E1_0" pos="900" freq="1" file="detector_output.xml"/>
    <e1Detector id="E1_1_900m" lane="E1_1" pos="900" freq="1" file="detector_output.xml"/>
    <e1Detector id="E1_0_1000m" lane="E1_0" pos="1000" freq="1" file="detector_output.xml"/>
    <e1Detector id="E1_1_1000m" lane="E1_1" pos="1000" freq="1" file="detector_output.xml"/>
    <e1Detector id="E1_0_1100m" lane="E1_0" pos="1100" freq="1" file="detector_output.xml"/>
    <e1Detector id="E1_1_1100m" lane="E1_1" pos="1100" freq="1" file="detector_output.xml"/>
    <e1Detector id="E1_0_1200m" lane="E1_0" pos="1200" freq="1" file="detector_output.xml"/>
    <e1Detector id="E1_1_1200m" lane="E1_1" pos="1200" freq="1" file="detector_output.xml"/>
    <e1Detector id="E1_0_1300m" lane="E1_0" pos="1300" freq="1" file="detector_output.xml"/>
    <e1Detector id="E1_1_1300m" lane="E1_1" pos="1300" freq="1" file="detector_output.xml"/>
    <e1Detector id="E1_0_1400m" lane="E1_0" pos="1400" freq="1" file="detector_output.xml"/>
    <e1Detector id="E1_1_1400m" lane="E1_1" pos="1400" freq="1" file="detector_output.xml"/>
    <e1Detector id="E1_0_1500m" lane="E1_0" pos="1500" freq="1" file="detector_output.xml"/>
    <e1Detector id="E1_1_1500m" lane="E1_1" pos="1500" freq="1" file="detector_output.xml"/>
    <e1Detector id="E1_0_1600m" lane="E1_0" pos="1600" freq="1" file="detector_output.xml"/>
    <e1Detector id="E1_1_1600m" lane="E1_1" pos="1600" freq="1" file="detector_output.xml"/>
    <e1Detector id="E1_0_1700m" lane="E1_0" pos="1700" freq="1" file="detector_output.xml"/>
    <e1Detector id="E1_1_1700m" lane="E1_1" pos="1700" freq="1" file="detector_output.xml"/>
    <e1Detector id="E1_0_1800m" lane="E1_0" pos="1800" freq="1" file="detector_output.xml"/>
    <e1Detector id="E1_1_1800m" lane="E1_1" pos="1800" freq="1" file="detector_output.xml"/>
    <e1Detector id="E1_0_1900m" lane="E1_0" pos="1900" freq="1" file="detector_output.xml"/>
    <e1Detector id="E1_1_1900m" lane="E1_1" pos="1900" freq="1" file="detector_output.xml"/>
    <e1Detector id="E1_0_2000m" lane="E1_0" pos="2000" freq="1" file="detector_output.xml"/>
    <e1Detector id="E1_1_2000m" lane="E1_1" pos="2000" freq="1" file="detector_output.xml"/>
    <e1Detector id="E1_0_2100m" lane="E1_0" pos="2100" freq="1" file="detector_output.xml"/>
    <e1Detector id="E1_1_2100m" lane="E1_1" pos="2100" freq="1" file="detector_output.xml"/>
    <e1Detector id="E1_0_2200m" lane="E1_0" pos="2200" freq="1" file="detector_output.xml"/>
    <e1Detector id="E1_1_2200m" lane="E1_1" pos="2200" freq="1" file="detector_output.xml"/>
    <e1Detector id="E1_0_2300m" lane="E1_0" pos="2300" freq="1" file="detector_output.xml"/>
    <e1Detector id="E1_1_2300m" lane="E1_1" pos="2300" freq="1" file="detector_output.xml"/>
    <e1Detector id="E1_0_2400m" lane="E1_0" pos="2400" freq="1" file="detector_output.xml"/>
    <e1Detector id="E1_1_2400m" lane="E1_1" pos="2400" freq="1" file="detector_output.xml"/>
    <e1Detector id="E1_0_2500m" lane="E1_0" pos="2500" freq="1" file="detector_output.xml"/>
    <e1Detector id="E1_1_2500m" lane="E1_1" pos="2500" freq="1" file="detector_output.xml"/>
    <e1Detector id="E1_0_2600m" lane="E1_0" pos="2600" freq="1" file="detector_output.xml"/>
    <e1Detector id="E1_1_2600m" lane="E1_1" pos="2600" freq="1" file="detector_output.xml"/>
    <e1Detector id="E1_0_2700m" lane="E1_0" pos="2700" freq="1" file="detector_output.xml"/>
    <e1Detector id="E1_1_2700m" lane="E1_1" pos="2700" freq="1" file="detector_output.xml"/>
    <e1Detector id="E1_0_2800m" lane="E1_0" pos="2800" freq="1" file="detector_output.xml"/>
    <e1Detector id="E1_1_2800m" lane="E1_1" pos="2800" freq="1" file="detector_output.xml"/>
    <e1Detector id="E1_0_2900m" lane="E1_0" pos="2900" freq="1" file="detector_output.xml"/>
    <e1Detector id="E1_1_2900m" lane="E1_1" pos="2900" freq="1" file="detector_output.xml"/>
    <e1Detector id="E1_0_3000m" lane="E1_0" pos="3000" freq="1" file="detector_output.xml"/>
    <e1Detector id="E1_1_3000m" lane="E1_1" pos="3000" freq="1" file="detector_output.xml"/>
    <e1Detector id="E1_0_3100m" lane="E1_0" pos="3100" freq="1" file="detector_output.xml"/>
    <e1Detector id="E1_1_3100m" lane="E1_1" pos="3100" freq="1" file="detector_output.xml"/>
    <e1Detector id="E1_0_3200m" lane="E1_0" pos="3200" freq="1" file="detector_output.xml"/>
    <e1Detector id="E1_1_3200m" lane="E1_1" pos="3200" freq="1" file="detector_output.xml"/>
    <e1Detector id="E1_0_3300m" lane="E1_0" pos="3300" freq="1" file="detector_output.xml"/>
    <e1Detector id="E1_1_3300m" lane="E1_1" pos="3300" freq="1" file="detector_output.xml"/>
    <e1Detector id="E1_0_3400m" lane="E1_0" pos="3400" freq="1" file="detector_output.xml"/>
    <e1Detector id="E1_1_3400m" lane="E1_1" pos="3400" freq="1" file="detector_output.xml"/>
    <e1Detector id="E1_0_3500m" lane="E1_0" pos="3500" freq="1" file="detector_output.xml"/>
    <e1Detector id="E1_1_3500m" lane="E1_1" pos="3500" freq="1" file="detector_output.xml"/>
    <e1Detector id="E1_0_3600m" lane="E1_0" pos="3600" freq="1" file="detector_output.xml"/>
    <e1Detector id="E1_1_3600m" lane="E1_1" pos="3600" freq="1" file="detector_output.xml"/>
    <e1Detector id="E1_0_3700m" lane="E1_0" pos="3700" freq="1" file="detector_output.xml"/>
    <e1Detector id="E1_1_3700m" lane="E1_1" pos="3700" freq="1" file="detector_output.xml"/>
    <e1Detector id="E1_0_3800m" lane="E1_0" pos="3800" freq="1" file="detector_output.xml"/>
    <e1Detector id="E1_1_3800m" lane="E1_1" pos="3800" freq="1" file="detector_output.xml"/>
    <e1Detector id="E1_0_3900m" lane="E1_0" pos="3900" freq="1" file="detector_output.xml"/>
    <e1Detector id="E1_1_3900m" lane="E1_1" pos="3900" freq="1" file="detector_output.xml"/>
    <e1Detector id="E1_0_4000m" lane="E1_0" pos="4000" freq="1" file="detector_output.xml"/>
    <e1Detector id="E1_1_4000m" lane="E1_1" pos="4000" freq="1" file="detector_output.xml"/>
    <e1Detector id="E1_0_4100m" lane="E1_0" pos="4100" freq="1" file="detector_output.xml"/>
    <e1Detector id="E1_1_4100m" lane="E1_1" pos="4100" freq="1" file="detector_output.xml"/>
    <e1Detector id="E1_0_4200m" lane="E1_0" pos="4200" freq="1" file="detector_output.xml"/>
    <e1Detector id="E1_1_4200m" lane="E1_1" pos="4200" freq="1" file="detector_output.xml"/>
    <e1Detector id="E1_0_4300m" lane="E1_0" pos="4300" freq="1" file="detector_output.xml"/>
    <e1Detector id="E1_1_4300m" lane="E1_1" pos="4300" freq="1" file="detector_output.xml"/>
    <e1Detector id="E1_0_4400m" lane="E1_0" pos="4400" freq="1" file="detector_output.xml"/>
    <e1Detector id="E1_1_4400m" lane="E1_1" pos="4400" freq="1" file="detector_output.xml"/>
    <e1Detector id="E1_0_4500m" lane="E1_0" pos="4500" freq="1" file="detector_output.xml"/>
    <e1Detector id="E1_1_4500m" lane="E1_1" pos="4500" freq="1" file="detector_output.xml"/>
    <e1Detector id="E1_0_4600m" lane="E1_0" pos="4600" freq="1" file="detector_output.xml"/>
    <e1Detector id="E1_1_4600m" lane="E1_1" pos="4600" freq="1" file="detector_output.xml"/>
    <e1Detector id="E1_0_4700m" lane="E1_0" pos="4700" freq="1" file="detector_output.xml"/>
    <e1Detector id="E1_1_4700m" lane="E1_1" pos="4700" freq="1" file="detector_output.xml"/>
    <e1Detector id="E1_0_4800m" lane="E1_0" pos="4800" freq="1" file="detector_output.xml"/>
    <e1Detector id="E1_1_4800m" lane="E1_1" pos="4800" freq="1" file="detector_output.xml"/>
    <e1Detector id="E1_0_4900m" lane="E1_0" pos="4900" freq="1" file="detector_output.xml"/>
    <e1Detector id="E1_1_4900m" lane="E1_1" pos="4900" freq="1" file="detector_output.xml"/>
    <e1Detector id="E1_0_5000m" lane="E1_0" pos="5000" freq="1" file="detector_output.xml"/>
    <e1Detector id="E1_1_5000m" lane="E1_1" pos="5000" freq="1" file="detector_output.xml"/>
    <e1Detector id="E1_0_5100m" lane="E1_0" pos="5100" freq="1" file="detector_output.xml"/>
    <e1Detector id="E1_1_5100m" lane="E1_1" pos="5100" freq="1" file="detector_output.xml"/>
    <e1Detector id="E1_0_5200m" lane="E1_0" pos="5200" freq="1" file="detector_output.xml"/>
    <e1Detector id="E1_1_5200m" lane="E1_1" pos="5200" freq="1" file="detector_output.xml"/>
    <e1Detector id="E1_0_5300m" lane="E1_0" pos="5300" freq="1" file="detector_output.xml"/>
    <e1Detector id="E1_1_5300m" lane="E1_1" pos="5300" freq="1" file="detector_output.xml"/>
    <e1Detector id="E1_0_5400m" lane="E1_0" pos="5400" freq="1" file="detector_output.xml"/>
    <e1Detector id="E1_1_5400m" lane="E1_1" pos="5400" freq="1" file="detector_output.xml"/>
    <e1Detector id="E1_0_5500m" lane="E1_0" pos="5500" freq="1" file="detector_output.xml"/>
    <e1Detector id="E1_1_5500m" lane="E1_1" pos="5500" freq="1" file="detector_output.xml"/>
    <e1Detector id="E1_0_5600m" lane="E1_0" pos="5600" freq="1" file="detector_output.xml"/>
    <e1Detector id="E1_1_5600m" lane="E1_1" pos="5600" freq="1" file="detector_output.xml"/>
    <e1Detector id="E1_0_5700m" lane="E1_0" pos="5700" freq="1" file="detector_output.xml"/>
    <e1Detector id="E1_1_5700m" lane="E1_1" pos="5700" freq="1" file="detector_output.xml"/>
    <e1Detector id="E1_0_5800m" lane="E1_0" pos="5800" freq="1" file="detector_output.xml"/>
    <e1Detector id="E1_1_5800m" lane="E1_1" pos="5800" freq="1" file="detector_output.xml"/>
    <e1Detector id="E1_0_5900m" lane="E1_0" pos="5900" freq="1" file="detector_output.xml"/>
    <e1Detector id="E1_1_5900m" lane="E1_1" pos="5900" freq="1" file="detector_output.xml"/>
    <e1Detector id="E1_0_6000m" lane="E1_0" pos="6000" freq="1" file="detector_output.xml"/>
    <e1Detector id="E1_1_6000m" lane="E1_1" pos="6000" freq="1" file="detector_output.xml"/>
</additional>