<additional>
    <e1Detector id="204901083_0_0m" lane="204901083_0" pos="0" file="detector_output.xml"/>
    <e1Detector id="204901083_1_0m" lane="204901083_1" pos="0" file="detector_output.xml"/>
    <e1Detector id="204901083_2_0m" lane="204901083_2" pos="0" file="detector_output.xml"/>
    <e1Detector id="204901083_0_100m" lane="204901083_0" pos="100" file="detector_output.xml"/>
    <e1Detector id="204901083_1_100m" lane="204901083_1" pos="100" file="detector_output.xml"/>
    <e1Detector id="204901083_2_100m" lane="204901083_2" pos="100" file="detector_output.xml"/>
    <e1Detector id="204901083_0_200m" lane="204901083_0" pos="200" file="detector_output.xml"/>
    <e1Detector id="204901083_1_200m" lane="204901083_1" pos="200" file="detector_output.xml"/>
    <e1Detector id="204901083_2_200m" lane="204901083_2" pos="200" file="detector_output.xml"/>
    <e1Detector id="204901083_0_300m" lane="204901083_0" pos="300" file="detector_output.xml"/>
    <e1Detector id="204901083_1_300m" lane="204901083_1" pos="300" file="detector_output.xml"/>
    <e1Detector id="204901083_2_300m" lane="204901083_2" pos="300" file="detector_output.xml"/>
    <e1Detector id="204901083_0_400m" lane="204901083_0" pos="400" file="detector_output.xml"/>
    <e1Detector id="204901083_1_400m" lane="204901083_1" pos="400" file="detector_output.xml"/>
    <e1Detector id="204901083_2_400m" lane="204901083_2" pos="400" file="detector_output.xml"/>
    <e1Detector id="204901083_0_500m" lane="204901083_0" pos="500" file="detector_output.xml"/>
    <e1Detector id="204901083_1_500m" lane="204901083_1" pos="500" file="detector_output.xml"/>
    <e1Detector id="204901083_2_500m" lane="204901083_2" pos="500" file="detector_output.xml"/>
    <e1Detector id="204901083_0_600m" lane="204901083_0" pos="600" file="detector_output.xml"/>
    <e1Detector id="204901083_1_600m" lane="204901083_1" pos="600" file="detector_output.xml"/>
    <e1Detector id="204901083_2_600m" lane="204901083_2" pos="600" file="detector_output.xml"/>
    <e1Detector id="204901083_0_700m" lane="204901083_0" pos="700" file="detector_output.xml"/>
    <e1Detector id="204901083_1_700m" lane="204901083_1" pos="700" file="detector_output.xml"/>
    <e1Detector id="204901083_2_700m" lane="204901083_2" pos="700" file="detector_output.xml"/>
    <e1Detector id="204901083_0_800m" lane="204901083_0" pos="800" file="detector_output.xml"/>
    <e1Detector id="204901083_1_800m" lane="204901083_1" pos="800" file="detector_output.xml"/>
    <e1Detector id="204901083_2_800m" lane="204901083_2" pos="800" file="detector_output.xml"/>
    <e1Detector id="204901083_0_900m" lane="204901083_0" pos="900" file="detector_output.xml"/>
    <e1Detector id="204901083_1_900m" lane="204901083_1" pos="900" file="detector_output.xml"/>
    <e1Detector id="204901083_2_900m" lane="204901083_2" pos="900" file="detector_output.xml"/>
    <e1Detector id="204901083_0_1000m" lane="204901083_0" pos="1000" file="detector_output.xml"/>
    <e1Detector id="204901083_1_1000m" lane="204901083_1" pos="1000" file="detector_output.xml"/>
    <e1Detector id="204901083_2_1000m" lane="204901083_2" pos="1000" file="detector_output.xml"/>
    <e1Detector id="204901083_0_1100m" lane="204901083_0" pos="1100" file="detector_output.xml"/>
    <e1Detector id="204901083_1_1100m" lane="204901083_1" pos="1100" file="detector_output.xml"/>
    <e1Detector id="204901083_2_1100m" lane="204901083_2" pos="1100" file="detector_output.xml"/>
    <e1Detector id="204901083_0_1200m" lane="204901083_0" pos="1200" file="detector_output.xml"/>
    <e1Detector id="204901083_1_1200m" lane="204901083_1" pos="1200" file="detector_output.xml"/>
    <e1Detector id="204901083_2_1200m" lane="204901083_2" pos="1200" file="detector_output.xml"/>
    <e1Detector id="204901083_0_1300m" lane="204901083_0" pos="1300" file="detector_output.xml"/>
    <e1Detector id="204901083_1_1300m" lane="204901083_1" pos="1300" file="detector_output.xml"/>
    <e1Detector id="204901083_2_1300m" lane="204901083_2" pos="1300" file="detector_output.xml"/>
    <e1Detector id="204901083_0_1400m" lane="204901083_0" pos="1400" file="detector_output.xml"/>
    <e1Detector id="204901083_1_1400m" lane="204901083_1" pos="1400" file="detector_output.xml"/>
    <e1Detector id="204901083_2_1400m" lane="204901083_2" pos="1400" file="detector_output.xml"/>
    <e1Detector id="204901083_0_1500m" lane="204901083_0" pos="1500" file="detector_output.xml"/>
    <e1Detector id="204901083_1_1500m" lane="204901083_1" pos="1500" file="detector_output.xml"/>
    <e1Detector id="204901083_2_1500m" lane="204901083_2" pos="1500" file="detector_output.xml"/>
    <e1Detector id="204901083_0_1600m" lane="204901083_0" pos="1600" file="detector_output.xml"/>
    <e1Detector id="204901083_1_1600m" lane="204901083_1" pos="1600" file="detector_output.xml"/>
    <e1Detector id="204901083_2_1600m" lane="204901083_2" pos="1600" file="detector_output.xml"/>
    <e1Detector id="204901083_0_1700m" lane="204901083_0" pos="1700" file="detector_output.xml"/>
    <e1Detector id="204901083_1_1700m" lane="204901083_1" pos="1700" file="detector_output.xml"/>
    <e1Detector id="204901083_2_1700m" lane="204901083_2" pos="1700" file="detector_output.xml"/>
    <e1Detector id="204901083_0_1800m" lane="204901083_0" pos="1800" file="detector_output.xml"/>
    <e1Detector id="204901083_1_1800m" lane="204901083_1" pos="1800" file="detector_output.xml"/>
    <e1Detector id="204901083_2_1800m" lane="204901083_2" pos="1800" file="detector_output.xml"/>
    <e1Detector id="204901083_0_1900m" lane="204901083_0" pos="1900" file="detector_output.xml"/>
    <e1Detector id="204901083_1_1900m" lane="204901083_1" pos="1900" file="detector_output.xml"/>
    <e1Detector id="204901083_2_1900m" lane="204901083_2" pos="1900" file="detector_output.xml"/>
    <e1Detector id="204901083_0_2000m" lane="204901083_0" pos="2000" file="detector_output.xml"/>
    <e1Detector id="204901083_1_2000m" lane="204901083_1" pos="2000" file="detector_output.xml"/>
    <e1Detector id="204901083_2_2000m" lane="204901083_2" pos="2000" file="detector_output.xml"/>
    <e1Detector id="204901083_0_2100m" lane="204901083_0" pos="2100" file="detector_output.xml"/>
    <e1Detector id="204901083_1_2100m" lane="204901083_1" pos="2100" file="detector_output.xml"/>
    <e1Detector id="204901083_2_2100m" lane="204901083_2" pos="2100" file="detector_output.xml"/>
    <e1Detector id="204901083_0_2200m" lane="204901083_0" pos="2200" file="detector_output.xml"/>
    <e1Detector id="204901083_1_2200m" lane="204901083_1" pos="2200" file="detector_output.xml"/>
    <e1Detector id="204901083_2_2200m" lane="204901083_2" pos="2200" file="detector_output.xml"/>
    <e1Detector id="204901083_0_2300m" lane="204901083_0" pos="2300" file="detector_output.xml"/>
    <e1Detector id="204901083_1_2300m" lane="204901083_1" pos="2300" file="detector_output.xml"/>
    <e1Detector id="204901083_2_2300m" lane="204901083_2" pos="2300" file="detector_output.xml"/>
    <e1Detector id="204901083_0_2400m" lane="204901083_0" pos="2400" file="detector_output.xml"/>
    <e1Detector id="204901083_1_2400m" lane="204901083_1" pos="2400" file="detector_output.xml"/>
    <e1Detector id="204901083_2_2400m" lane="204901083_2" pos="2400" file="detector_output.xml"/>
    <e1Detector id="204901083_0_2500m" lane="204901083_0" pos="2500" file="detector_output.xml"/>
    <e1Detector id="204901083_1_2500m" lane="204901083_1" pos="2500" file="detector_output.xml"/>
    <e1Detector id="204901083_2_2500m" lane="204901083_2" pos="2500" file="detector_output.xml"/>
    <e1Detector id="204901083_0_2600m" lane="204901083_0" pos="2600" file="detector_output.xml"/>
    <e1Detector id="204901083_1_2600m" lane="204901083_1" pos="2600" file="detector_output.xml"/>
    <e1Detector id="204901083_2_2600m" lane="204901083_2" pos="2600" file="detector_output.xml"/>
    <e1Detector id="204901083_0_2700m" lane="204901083_0" pos="2700" file="detector_output.xml"/>
    <e1Detector id="204901083_1_2700m" lane="204901083_1" pos="2700" file="detector_output.xml"/>
    <e1Detector id="204901083_2_2700m" lane="204901083_2" pos="2700" file="detector_output.xml"/>
    <e1Detector id="204901083_0_2800m" lane="204901083_0" pos="2800" file="detector_output.xml"/>
    <e1Detector id="204901083_1_2800m" lane="204901083_1" pos="2800" file="detector_output.xml"/>
    <e1Detector id="204901083_2_2800m" lane="204901083_2" pos="2800" file="detector_output.xml"/>
    <e1Detector id="204901083_0_2900m" lane="204901083_0" pos="2900" file="detector_output.xml"/>
    <e1Detector id="204901083_1_2900m" lane="204901083_1" pos="2900" file="detector_output.xml"/>
    <e1Detector id="204901083_2_2900m" lane="204901083_2" pos="2900" file="detector_output.xml"/>
    <e1Detector id="204901083_0_3000m" lane="204901083_0" pos="3000" file="detector_output.xml"/>
    <e1Detector id="204901083_1_3000m" lane="204901083_1" pos="3000" file="detector_output.xml"/>
    <e1Detector id="204901083_2_3000m" lane="204901083_2" pos="3000" file="detector_output.xml"/>
</additional>