<?xml version="1.0" ?>
<routes>
  <vType id="attack" maxSpeed="55.55" color="red"/>
  <vType id="car" vClass="passenger" lcKeepRight="0.8" color="yellow"/>
  <vType id="HGV" vClass="truck" maxSpeed="31.0" accel="1.3" decel="3.5" lcStrategic="0.5" lcCooperative="0.5" lcKeepRight="1.0" color="yellow"/>
  <!-- <vehicle id="ego" type="attack" depart="0" departLane="best" departSpeed="max">
        <route edges="25409515 1252381912 204901083 3239920"/>
    </vehicle> -->
  <!-- <flow from="25409515" to="385618477" id="flow_25409515_to_385618477_car_0" type="car" begin="0" end="900" number="5"/>
  <flow from="25409515" to="111657117" id="flow_25409515_to_111657117_car_0" type="car" begin="0" end="900" number="14"/>
  <flow from="3239957#1" to="385618477" id="flow_3239957#1_to_385618477_car_0" type="car" begin="0" end="900" number="22"/>
  <flow from="3239957#1" to="111657117" id="flow_3239957#1_to_111657117_car_0" type="car" begin="0" end="900" number="70"/>
  <flow from="25409515" to="385618477" id="flow_25409515_to_385618477_HGV_0" type="HGV" begin="0" end="900" number="2"/>
  <flow from="25409515" to="111657117" id="flow_25409515_to_111657117_HGV_0" type="HGV" begin="0" end="900" number="4"/>
  <flow from="3239957#1" to="385618477" id="flow_3239957#1_to_385618477_HGV_0" type="HGV" begin="0" end="900" number="6"/>
  <flow from="3239957#1" to="111657117" id="flow_3239957#1_to_111657117_HGV_0" type="HGV" begin="0" end="900" number="19"/>
  <flow from="25409515" to="385618477" id="flow_25409515_to_385618477_car_900" type="car" begin="900" end="1800" number="9"/>
  <flow from="25409515" to="111657117" id="flow_25409515_to_111657117_car_900" type="car" begin="900" end="1800" number="13"/>
  <flow from="3239957#1" to="385618477" id="flow_3239957#1_to_385618477_car_900" type="car" begin="900" end="1800" number="27"/>
  <flow from="3239957#1" to="111657117" id="flow_3239957#1_to_111657117_car_900" type="car" begin="900" end="1800" number="41"/>
  <flow from="25409515" to="385618477" id="flow_25409515_to_385618477_HGV_900" type="HGV" begin="900" end="1800" number="3"/>
  <flow from="25409515" to="111657117" id="flow_25409515_to_111657117_HGV_900" type="HGV" begin="900" end="1800" number="4"/>
  <flow from="3239957#1" to="385618477" id="flow_3239957#1_to_385618477_HGV_900" type="HGV" begin="900" end="1800" number="8"/>
  <flow from="3239957#1" to="111657117" id="flow_3239957#1_to_111657117_HGV_900" type="HGV" begin="900" end="1800" number="11"/>
  <flow from="25409515" to="385618477" id="flow_25409515_to_385618477_car_1800" type="car" begin="1800" end="2700" number="8"/>
  <flow from="25409515" to="111657117" id="flow_25409515_to_111657117_car_1800" type="car" begin="1800" end="2700" number="12"/>
  <flow from="3239957#1" to="385618477" id="flow_3239957#1_to_385618477_car_1800" type="car" begin="1800" end="2700" number="32"/>
  <flow from="3239957#1" to="111657117" id="flow_3239957#1_to_111657117_car_1800" type="car" begin="1800" end="2700" number="53"/>
  <flow from="25409515" to="385618477" id="flow_25409515_to_385618477_HGV_1800" type="HGV" begin="1800" end="2700" number="2"/>
  <flow from="25409515" to="111657117" id="flow_25409515_to_111657117_HGV_1800" type="HGV" begin="1800" end="2700" number="4"/>
  <flow from="3239957#1" to="385618477" id="flow_3239957#1_to_385618477_HGV_1800" type="HGV" begin="1800" end="2700" number="9"/>
  <flow from="3239957#1" to="111657117" id="flow_3239957#1_to_111657117_HGV_1800" type="HGV" begin="1800" end="2700" number="14"/>
  <flow from="25409515" to="385618477" id="flow_25409515_to_385618477_car_2700" type="car" begin="2700" end="3600" number="5"/>
  <flow from="25409515" to="111657117" id="flow_25409515_to_111657117_car_2700" type="car" begin="2700" end="3600" number="11"/>
  <flow from="3239957#1" to="385618477" id="flow_3239957#1_to_385618477_car_2700" type="car" begin="2700" end="3600" number="23"/>
  <flow from="3239957#1" to="111657117" id="flow_3239957#1_to_111657117_car_2700" type="car" begin="2700" end="3600" number="55"/>
  <flow from="25409515" to="385618477" id="flow_25409515_to_385618477_HGV_2700" type="HGV" begin="2700" end="3600" number="2"/>
  <flow from="25409515" to="111657117" id="flow_25409515_to_111657117_HGV_2700" type="HGV" begin="2700" end="3600" number="3"/>
  <flow from="3239957#1" to="385618477" id="flow_3239957#1_to_385618477_HGV_2700" type="HGV" begin="2700" end="3600" number="7"/>
  <flow from="3239957#1" to="111657117" id="flow_3239957#1_to_111657117_HGV_2700" type="HGV" begin="2700" end="3600" number="15"/>
  <flow from="25409515" to="385618477" id="flow_25409515_to_385618477_car_3600" type="car" begin="3600" end="4500" number="4"/>
  <flow from="25409515" to="111657117" id="flow_25409515_to_111657117_car_3600" type="car" begin="3600" end="4500" number="8"/>
  <flow from="3239957#1" to="385618477" id="flow_3239957#1_to_385618477_car_3600" type="car" begin="3600" end="4500" number="21"/>
  <flow from="3239957#1" to="111657117" id="flow_3239957#1_to_111657117_car_3600" type="car" begin="3600" end="4500" number="49"/>
  <flow from="25409515" to="385618477" id="flow_25409515_to_385618477_HGV_3600" type="HGV" begin="3600" end="4500" number="1"/>
  <flow from="25409515" to="111657117" id="flow_25409515_to_111657117_HGV_3600" type="HGV" begin="3600" end="4500" number="2"/>
  <flow from="3239957#1" to="385618477" id="flow_3239957#1_to_385618477_HGV_3600" type="HGV" begin="3600" end="4500" number="6"/>
  <flow from="3239957#1" to="111657117" id="flow_3239957#1_to_111657117_HGV_3600" type="HGV" begin="3600" end="4500" number="13"/>
  <flow from="25409515" to="385618477" id="flow_25409515_to_385618477_car_4500" type="car" begin="4500" end="5400" number="4"/>
  <flow from="25409515" to="111657117" id="flow_25409515_to_111657117_car_4500" type="car" begin="4500" end="5400" number="8"/>
  <flow from="3239957#1" to="385618477" id="flow_3239957#1_to_385618477_car_4500" type="car" begin="4500" end="5400" number="22"/>
  <flow from="3239957#1" to="111657117" id="flow_3239957#1_to_111657117_car_4500" type="car" begin="4500" end="5400" number="53"/>
  <flow from="25409515" to="385618477" id="flow_25409515_to_385618477_HGV_4500" type="HGV" begin="4500" end="5400" number="1"/>
  <flow from="25409515" to="111657117" id="flow_25409515_to_111657117_HGV_4500" type="HGV" begin="4500" end="5400" number="3"/>
  <flow from="3239957#1" to="385618477" id="flow_3239957#1_to_385618477_HGV_4500" type="HGV" begin="4500" end="5400" number="6"/>
  <flow from="3239957#1" to="111657117" id="flow_3239957#1_to_111657117_HGV_4500" type="HGV" begin="4500" end="5400" number="14"/>
  <flow from="25409515" to="385618477" id="flow_25409515_to_385618477_car_5400" type="car" begin="5400" end="6300" number="6"/>
  <flow from="25409515" to="111657117" id="flow_25409515_to_111657117_car_5400" type="car" begin="5400" end="6300" number="11"/>
  <flow from="3239957#1" to="385618477" id="flow_3239957#1_to_385618477_car_5400" type="car" begin="5400" end="6300" number="29"/>
  <flow from="3239957#1" to="111657117" id="flow_3239957#1_to_111657117_car_5400" type="car" begin="5400" end="6300" number="50"/>
  <flow from="25409515" to="385618477" id="flow_25409515_to_385618477_HGV_5400" type="HGV" begin="5400" end="6300" number="2"/>
  <flow from="25409515" to="111657117" id="flow_25409515_to_111657117_HGV_5400" type="HGV" begin="5400" end="6300" number="3"/>
  <flow from="3239957#1" to="385618477" id="flow_3239957#1_to_385618477_HGV_5400" type="HGV" begin="5400" end="6300" number="8"/>
  <flow from="3239957#1" to="111657117" id="flow_3239957#1_to_111657117_HGV_5400" type="HGV" begin="5400" end="6300" number="14"/>
  <flow from="25409515" to="385618477" id="flow_25409515_to_385618477_car_6300" type="car" begin="6300" end="7200" number="5"/>
  <flow from="25409515" to="111657117" id="flow_25409515_to_111657117_car_6300" type="car" begin="6300" end="7200" number="8"/>
  <flow from="3239957#1" to="385618477" id="flow_3239957#1_to_385618477_car_6300" type="car" begin="6300" end="7200" number="31"/>
  <flow from="3239957#1" to="111657117" id="flow_3239957#1_to_111657117_car_6300" type="car" begin="6300" end="7200" number="47"/>
  <flow from="25409515" to="385618477" id="flow_25409515_to_385618477_HGV_6300" type="HGV" begin="6300" end="7200" number="2"/>
  <flow from="25409515" to="111657117" id="flow_25409515_to_111657117_HGV_6300" type="HGV" begin="6300" end="7200" number="2"/>
  <flow from="3239957#1" to="385618477" id="flow_3239957#1_to_385618477_HGV_6300" type="HGV" begin="6300" end="7200" number="9"/>
  <flow from="3239957#1" to="111657117" id="flow_3239957#1_to_111657117_HGV_6300" type="HGV" begin="6300" end="7200" number="13"/>
  <flow from="25409515" to="385618477" id="flow_25409515_to_385618477_car_7200" type="car" begin="7200" end="8100" number="6"/>
  <flow from="25409515" to="111657117" id="flow_25409515_to_111657117_car_7200" type="car" begin="7200" end="8100" number="10"/>
  <flow from="3239957#1" to="385618477" id="flow_3239957#1_to_385618477_car_7200" type="car" begin="7200" end="8100" number="25"/>
  <flow from="3239957#1" to="111657117" id="flow_3239957#1_to_111657117_car_7200" type="car" begin="7200" end="8100" number="43"/>
  <flow from="25409515" to="385618477" id="flow_25409515_to_385618477_HGV_7200" type="HGV" begin="7200" end="8100" number="2"/>
  <flow from="25409515" to="111657117" id="flow_25409515_to_111657117_HGV_7200" type="HGV" begin="7200" end="8100" number="3"/>
  <flow from="3239957#1" to="385618477" id="flow_3239957#1_to_385618477_HGV_7200" type="HGV" begin="7200" end="8100" number="7"/>
  <flow from="3239957#1" to="111657117" id="flow_3239957#1_to_111657117_HGV_7200" type="HGV" begin="7200" end="8100" number="12"/>
  <flow from="25409515" to="385618477" id="flow_25409515_to_385618477_car_8100" type="car" begin="8100" end="9000" number="4"/>
  <flow from="25409515" to="111657117" id="flow_25409515_to_111657117_car_8100" type="car" begin="8100" end="9000" number="7"/>
  <flow from="3239957#1" to="385618477" id="flow_3239957#1_to_385618477_car_8100" type="car" begin="8100" end="9000" number="28"/>
  <flow from="3239957#1" to="111657117" id="flow_3239957#1_to_111657117_car_8100" type="car" begin="8100" end="9000" number="54"/>
  <flow from="25409515" to="385618477" id="flow_25409515_to_385618477_HGV_8100" type="HGV" begin="8100" end="9000" number="1"/>
  <flow from="25409515" to="111657117" id="flow_25409515_to_111657117_HGV_8100" type="HGV" begin="8100" end="9000" number="2"/>
  <flow from="3239957#1" to="385618477" id="flow_3239957#1_to_385618477_HGV_8100" type="HGV" begin="8100" end="9000" number="8"/>
  <flow from="3239957#1" to="111657117" id="flow_3239957#1_to_111657117_HGV_8100" type="HGV" begin="8100" end="9000" number="15"/>
  <flow from="25409515" to="385618477" id="flow_25409515_to_385618477_car_9000" type="car" begin="9000" end="9900" number="4"/>
  <flow from="25409515" to="111657117" id="flow_25409515_to_111657117_car_9000" type="car" begin="9000" end="9900" number="5"/>
  <flow from="3239957#1" to="385618477" id="flow_3239957#1_to_385618477_car_9000" type="car" begin="9000" end="9900" number="37"/>
  <flow from="3239957#1" to="111657117" id="flow_3239957#1_to_111657117_car_9000" type="car" begin="9000" end="9900" number="45"/>
  <flow from="25409515" to="385618477" id="flow_25409515_to_385618477_HGV_9000" type="HGV" begin="9000" end="9900" number="2"/>
  <flow from="25409515" to="111657117" id="flow_25409515_to_111657117_HGV_9000" type="HGV" begin="9000" end="9900" number="2"/>
  <flow from="3239957#1" to="385618477" id="flow_3239957#1_to_385618477_HGV_9000" type="HGV" begin="9000" end="9900" number="10"/>
  <flow from="3239957#1" to="111657117" id="flow_3239957#1_to_111657117_HGV_9000" type="HGV" begin="9000" end="9900" number="12"/>
  <flow from="25409515" to="385618477" id="flow_25409515_to_385618477_car_9900" type="car" begin="9900" end="10800" number="5"/>
  <flow from="25409515" to="111657117" id="flow_25409515_to_111657117_car_9900" type="car" begin="9900" end="10800" number="10"/>
  <flow from="3239957#1" to="385618477" id="flow_3239957#1_to_385618477_car_9900" type="car" begin="9900" end="10800" number="26"/>
  <flow from="3239957#1" to="111657117" id="flow_3239957#1_to_111657117_car_9900" type="car" begin="9900" end="10800" number="52"/>
  <flow from="25409515" to="385618477" id="flow_25409515_to_385618477_HGV_9900" type="HGV" begin="9900" end="10800" number="2"/>
  <flow from="25409515" to="111657117" id="flow_25409515_to_111657117_HGV_9900" type="HGV" begin="9900" end="10800" number="3"/>
  <flow from="3239957#1" to="385618477" id="flow_3239957#1_to_385618477_HGV_9900" type="HGV" begin="9900" end="10800" number="7"/>
  <flow from="3239957#1" to="111657117" id="flow_3239957#1_to_111657117_HGV_9900" type="HGV" begin="9900" end="10800" number="14"/>
  <flow from="25409515" to="385618477" id="flow_25409515_to_385618477_car_10800" type="car" begin="10800" end="11700" number="6"/>
  <flow from="25409515" to="111657117" id="flow_25409515_to_111657117_car_10800" type="car" begin="10800" end="11700" number="10"/>
  <flow from="3239957#1" to="385618477" id="flow_3239957#1_to_385618477_car_10800" type="car" begin="10800" end="11700" number="29"/>
  <flow from="3239957#1" to="111657117" id="flow_3239957#1_to_111657117_car_10800" type="car" begin="10800" end="11700" number="50"/>
  <flow from="25409515" to="385618477" id="flow_25409515_to_385618477_HGV_10800" type="HGV" begin="10800" end="11700" number="2"/>
  <flow from="25409515" to="111657117" id="flow_25409515_to_111657117_HGV_10800" type="HGV" begin="10800" end="11700" number="3"/>
  <flow from="3239957#1" to="385618477" id="flow_3239957#1_to_385618477_HGV_10800" type="HGV" begin="10800" end="11700" number="8"/>
  <flow from="3239957#1" to="111657117" id="flow_3239957#1_to_111657117_HGV_10800" type="HGV" begin="10800" end="11700" number="14"/>
  <flow from="25409515" to="385618477" id="flow_25409515_to_385618477_car_11700" type="car" begin="11700" end="12600" number="3"/>
  <flow from="25409515" to="111657117" id="flow_25409515_to_111657117_car_11700" type="car" begin="11700" end="12600" number="6"/>
  <flow from="3239957#1" to="385618477" id="flow_3239957#1_to_385618477_car_11700" type="car" begin="11700" end="12600" number="26"/>
  <flow from="3239957#1" to="111657117" id="flow_3239957#1_to_111657117_car_11700" type="car" begin="11700" end="12600" number="52"/>
  <flow from="25409515" to="385618477" id="flow_25409515_to_385618477_HGV_11700" type="HGV" begin="11700" end="12600" number="1"/>
  <flow from="25409515" to="111657117" id="flow_25409515_to_111657117_HGV_11700" type="HGV" begin="11700" end="12600" number="2"/>
  <flow from="3239957#1" to="385618477" id="flow_3239957#1_to_385618477_HGV_11700" type="HGV" begin="11700" end="12600" number="7"/>
  <flow from="3239957#1" to="111657117" id="flow_3239957#1_to_111657117_HGV_11700" type="HGV" begin="11700" end="12600" number="14"/>
  <flow from="25409515" to="385618477" id="flow_25409515_to_385618477_car_12600" type="car" begin="12600" end="13500" number="10"/>
  <flow from="25409515" to="111657117" id="flow_25409515_to_111657117_car_12600" type="car" begin="12600" end="13500" number="13"/>
  <flow from="3239957#1" to="385618477" id="flow_3239957#1_to_385618477_car_12600" type="car" begin="12600" end="13500" number="37"/>
  <flow from="3239957#1" to="111657117" id="flow_3239957#1_to_111657117_car_12600" type="car" begin="12600" end="13500" number="50"/>
  <flow from="25409515" to="385618477" id="flow_25409515_to_385618477_HGV_12600" type="HGV" begin="12600" end="13500" number="3"/>
  <flow from="25409515" to="111657117" id="flow_25409515_to_111657117_HGV_12600" type="HGV" begin="12600" end="13500" number="4"/>
  <flow from="3239957#1" to="385618477" id="flow_3239957#1_to_385618477_HGV_12600" type="HGV" begin="12600" end="13500" number="10"/>
  <flow from="3239957#1" to="111657117" id="flow_3239957#1_to_111657117_HGV_12600" type="HGV" begin="12600" end="13500" number="14"/>
  <flow from="25409515" to="385618477" id="flow_25409515_to_385618477_car_13500" type="car" begin="13500" end="14400" number="4"/>
  <flow from="25409515" to="111657117" id="flow_25409515_to_111657117_car_13500" type="car" begin="13500" end="14400" number="7"/>
  <flow from="3239957#1" to="385618477" id="flow_3239957#1_to_385618477_car_13500" type="car" begin="13500" end="14400" number="34"/>
  <flow from="3239957#1" to="111657117" id="flow_3239957#1_to_111657117_car_13500" type="car" begin="13500" end="14400" number="59"/>
  <flow from="25409515" to="385618477" id="flow_25409515_to_385618477_HGV_13500" type="HGV" begin="13500" end="14400" number="1"/>
  <flow from="25409515" to="111657117" id="flow_25409515_to_111657117_HGV_13500" type="HGV" begin="13500" end="14400" number="2"/>
  <flow from="3239957#1" to="385618477" id="flow_3239957#1_to_385618477_HGV_13500" type="HGV" begin="13500" end="14400" number="9"/>
  <flow from="3239957#1" to="111657117" id="flow_3239957#1_to_111657117_HGV_13500" type="HGV" begin="13500" end="14400" number="16"/>
  <flow from="25409515" to="385618477" id="flow_25409515_to_385618477_car_14400" type="car" begin="14400" end="15300" number="5"/>
  <flow from="25409515" to="111657117" id="flow_25409515_to_111657117_car_14400" type="car" begin="14400" end="15300" number="9"/>
  <flow from="3239957#1" to="385618477" id="flow_3239957#1_to_385618477_car_14400" type="car" begin="14400" end="15300" number="49"/>
  <flow from="3239957#1" to="111657117" id="flow_3239957#1_to_111657117_car_14400" type="car" begin="14400" end="15300" number="91"/>
  <flow from="25409515" to="385618477" id="flow_25409515_to_385618477_HGV_14400" type="HGV" begin="14400" end="15300" number="2"/>
  <flow from="25409515" to="111657117" id="flow_25409515_to_111657117_HGV_14400" type="HGV" begin="14400" end="15300" number="3"/>
  <flow from="3239957#1" to="385618477" id="flow_3239957#1_to_385618477_HGV_14400" type="HGV" begin="14400" end="15300" number="13"/>
  <flow from="3239957#1" to="111657117" id="flow_3239957#1_to_111657117_HGV_14400" type="HGV" begin="14400" end="15300" number="25"/>
  <flow from="25409515" to="385618477" id="flow_25409515_to_385618477_car_15300" type="car" begin="15300" end="16200" number="9"/>
  <flow from="25409515" to="111657117" id="flow_25409515_to_111657117_car_15300" type="car" begin="15300" end="16200" number="16"/>
  <flow from="3239957#1" to="385618477" id="flow_3239957#1_to_385618477_car_15300" type="car" begin="15300" end="16200" number="45"/>
  <flow from="3239957#1" to="111657117" id="flow_3239957#1_to_111657117_car_15300" type="car" begin="15300" end="16200" number="85"/>
  <flow from="25409515" to="385618477" id="flow_25409515_to_385618477_HGV_15300" type="HGV" begin="15300" end="16200" number="3"/>
  <flow from="25409515" to="111657117" id="flow_25409515_to_111657117_HGV_15300" type="HGV" begin="15300" end="16200" number="5"/>
  <flow from="3239957#1" to="385618477" id="flow_3239957#1_to_385618477_HGV_15300" type="HGV" begin="15300" end="16200" number="12"/>
  <flow from="3239957#1" to="111657117" id="flow_3239957#1_to_111657117_HGV_15300" type="HGV" begin="15300" end="16200" number="23"/>
  <flow from="25409515" to="385618477" id="flow_25409515_to_385618477_car_16200" type="car" begin="16200" end="17100" number="6"/>
  <flow from="25409515" to="111657117" id="flow_25409515_to_111657117_car_16200" type="car" begin="16200" end="17100" number="13"/>
  <flow from="3239957#1" to="385618477" id="flow_3239957#1_to_385618477_car_16200" type="car" begin="16200" end="17100" number="39"/>
  <flow from="3239957#1" to="111657117" id="flow_3239957#1_to_111657117_car_16200" type="car" begin="16200" end="17100" number="86"/>
  <flow from="25409515" to="385618477" id="flow_25409515_to_385618477_HGV_16200" type="HGV" begin="16200" end="17100" number="2"/>
  <flow from="25409515" to="111657117" id="flow_25409515_to_111657117_HGV_16200" type="HGV" begin="16200" end="17100" number="4"/>
  <flow from="3239957#1" to="385618477" id="flow_3239957#1_to_385618477_HGV_16200" type="HGV" begin="16200" end="17100" number="11"/>
  <flow from="3239957#1" to="111657117" id="flow_3239957#1_to_111657117_HGV_16200" type="HGV" begin="16200" end="17100" number="23"/>
  <flow from="25409515" to="385618477" id="flow_25409515_to_385618477_car_17100" type="car" begin="17100" end="18000" number="11"/>
  <flow from="25409515" to="111657117" id="flow_25409515_to_111657117_car_17100" type="car" begin="17100" end="18000" number="20"/>
  <flow from="3239957#1" to="385618477" id="flow_3239957#1_to_385618477_car_17100" type="car" begin="17100" end="18000" number="46"/>
  <flow from="3239957#1" to="111657117" id="flow_3239957#1_to_111657117_car_17100" type="car" begin="17100" end="18000" number="85"/>
  <flow from="25409515" to="385618477" id="flow_25409515_to_385618477_HGV_17100" type="HGV" begin="17100" end="18000" number="3"/>
  <flow from="25409515" to="111657117" id="flow_25409515_to_111657117_HGV_17100" type="HGV" begin="17100" end="18000" number="6"/>
  <flow from="3239957#1" to="385618477" id="flow_3239957#1_to_385618477_HGV_17100" type="HGV" begin="17100" end="18000" number="13"/>
  <flow from="3239957#1" to="111657117" id="flow_3239957#1_to_111657117_HGV_17100" type="HGV" begin="17100" end="18000" number="23"/>
  <flow from="25409515" to="385618477" id="flow_25409515_to_385618477_car_18000" type="car" begin="18000" end="18900" number="9"/>
  <flow from="25409515" to="111657117" id="flow_25409515_to_111657117_car_18000" type="car" begin="18000" end="18900" number="19"/>
  <flow from="3239957#1" to="385618477" id="flow_3239957#1_to_385618477_car_18000" type="car" begin="18000" end="18900" number="60"/>
  <flow from="3239957#1" to="111657117" id="flow_3239957#1_to_111657117_car_18000" type="car" begin="18000" end="18900" number="129"/>
  <flow from="25409515" to="385618477" id="flow_25409515_to_385618477_HGV_18000" type="HGV" begin="18000" end="18900" number="3"/>
  <flow from="25409515" to="111657117" id="flow_25409515_to_111657117_HGV_18000" type="HGV" begin="18000" end="18900" number="5"/>
  <flow from="3239957#1" to="385618477" id="flow_3239957#1_to_385618477_HGV_18000" type="HGV" begin="18000" end="18900" number="16"/>
  <flow from="3239957#1" to="111657117" id="flow_3239957#1_to_111657117_HGV_18000" type="HGV" begin="18000" end="18900" number="35"/>
  <flow from="25409515" to="385618477" id="flow_25409515_to_385618477_car_18900" type="car" begin="18900" end="19800" number="17"/>
  <flow from="25409515" to="111657117" id="flow_25409515_to_111657117_car_18900" type="car" begin="18900" end="19800" number="21"/>
  <flow from="3239957#1" to="385618477" id="flow_3239957#1_to_385618477_car_18900" type="car" begin="18900" end="19800" number="95"/>
  <flow from="3239957#1" to="111657117" id="flow_3239957#1_to_111657117_car_18900" type="car" begin="18900" end="19800" number="118"/>
  <flow from="25409515" to="385618477" id="flow_25409515_to_385618477_HGV_18900" type="HGV" begin="18900" end="19800" number="5"/>
  <flow from="25409515" to="111657117" id="flow_25409515_to_111657117_HGV_18900" type="HGV" begin="18900" end="19800" number="6"/>
  <flow from="3239957#1" to="385618477" id="flow_3239957#1_to_385618477_HGV_18900" type="HGV" begin="18900" end="19800" number="26"/>
  <flow from="3239957#1" to="111657117" id="flow_3239957#1_to_111657117_HGV_18900" type="HGV" begin="18900" end="19800" number="32"/>
  <flow from="25409515" to="385618477" id="flow_25409515_to_385618477_car_19800" type="car" begin="19800" end="20700" number="13"/>
  <flow from="25409515" to="111657117" id="flow_25409515_to_111657117_car_19800" type="car" begin="19800" end="20700" number="26"/>
  <flow from="3239957#1" to="385618477" id="flow_3239957#1_to_385618477_car_19800" type="car" begin="19800" end="20700" number="85"/>
  <flow from="3239957#1" to="111657117" id="flow_3239957#1_to_111657117_car_19800" type="car" begin="19800" end="20700" number="169"/>
  <flow from="25409515" to="385618477" id="flow_25409515_to_385618477_HGV_19800" type="HGV" begin="19800" end="20700" number="4"/>
  <flow from="25409515" to="111657117" id="flow_25409515_to_111657117_HGV_19800" type="HGV" begin="19800" end="20700" number="7"/>
  <flow from="3239957#1" to="385618477" id="flow_3239957#1_to_385618477_HGV_19800" type="HGV" begin="19800" end="20700" number="23"/>
  <flow from="3239957#1" to="111657117" id="flow_3239957#1_to_111657117_HGV_19800" type="HGV" begin="19800" end="20700" number="45"/>
  <flow from="25409515" to="385618477" id="flow_25409515_to_385618477_car_20700" type="car" begin="20700" end="21600" number="19"/>
  <flow from="25409515" to="111657117" id="flow_25409515_to_111657117_car_20700" type="car" begin="20700" end="21600" number="29"/>
  <flow from="3239957#1" to="385618477" id="flow_3239957#1_to_385618477_car_20700" type="car" begin="20700" end="21600" number="105"/>
  <flow from="3239957#1" to="111657117" id="flow_3239957#1_to_111657117_car_20700" type="car" begin="20700" end="21600" number="164"/>
  <flow from="25409515" to="385618477" id="flow_25409515_to_385618477_HGV_20700" type="HGV" begin="20700" end="21600" number="5"/>
  <flow from="25409515" to="111657117" id="flow_25409515_to_111657117_HGV_20700" type="HGV" begin="20700" end="21600" number="8"/>
  <flow from="3239957#1" to="385618477" id="flow_3239957#1_to_385618477_HGV_20700" type="HGV" begin="20700" end="21600" number="28"/>
  <flow from="3239957#1" to="111657117" id="flow_3239957#1_to_111657117_HGV_20700" type="HGV" begin="20700" end="21600" number="44"/>
  <flow from="25409515" to="385618477" id="flow_25409515_to_385618477_car_21600" type="car" begin="21600" end="22500" number="25"/>
  <flow from="25409515" to="111657117" id="flow_25409515_to_111657117_car_21600" type="car" begin="21600" end="22500" number="29"/>
  <flow from="3239957#1" to="385618477" id="flow_3239957#1_to_385618477_car_21600" type="car" begin="21600" end="22500" number="146"/>
  <flow from="3239957#1" to="111657117" id="flow_3239957#1_to_111657117_car_21600" type="car" begin="21600" end="22500" number="176"/>
  <flow from="25409515" to="385618477" id="flow_25409515_to_385618477_HGV_21600" type="HGV" begin="21600" end="22500" number="7"/>
  <flow from="25409515" to="111657117" id="flow_25409515_to_111657117_HGV_21600" type="HGV" begin="21600" end="22500" number="8"/>
  <flow from="3239957#1" to="385618477" id="flow_3239957#1_to_385618477_HGV_21600" type="HGV" begin="21600" end="22500" number="39"/>
  <flow from="3239957#1" to="111657117" id="flow_3239957#1_to_111657117_HGV_21600" type="HGV" begin="21600" end="22500" number="47"/>
  <flow from="25409515" to="385618477" id="flow_25409515_to_385618477_car_22500" type="car" begin="22500" end="23400" number="28"/>
  <flow from="25409515" to="111657117" id="flow_25409515_to_111657117_car_22500" type="car" begin="22500" end="23400" number="30"/>
  <flow from="3239957#1" to="385618477" id="flow_3239957#1_to_385618477_car_22500" type="car" begin="22500" end="23400" number="189"/>
  <flow from="3239957#1" to="111657117" id="flow_3239957#1_to_111657117_car_22500" type="car" begin="22500" end="23400" number="204"/>
  <flow from="25409515" to="385618477" id="flow_25409515_to_385618477_HGV_22500" type="HGV" begin="22500" end="23400" number="8"/>
  <flow from="25409515" to="111657117" id="flow_25409515_to_111657117_HGV_22500" type="HGV" begin="22500" end="23400" number="8"/>
  <flow from="3239957#1" to="385618477" id="flow_3239957#1_to_385618477_HGV_22500" type="HGV" begin="22500" end="23400" number="51"/>
  <flow from="3239957#1" to="111657117" id="flow_3239957#1_to_111657117_HGV_22500" type="HGV" begin="22500" end="23400" number="55"/>
  <flow from="25409515" to="385618477" id="flow_25409515_to_385618477_car_23400" type="car" begin="23400" end="24300" number="33"/>
  <flow from="25409515" to="111657117" id="flow_25409515_to_111657117_car_23400" type="car" begin="23400" end="24300" number="39"/>
  <flow from="3239957#1" to="385618477" id="flow_3239957#1_to_385618477_car_23400" type="car" begin="23400" end="24300" number="180"/>
  <flow from="3239957#1" to="111657117" id="flow_3239957#1_to_111657117_car_23400" type="car" begin="23400" end="24300" number="212"/>
  <flow from="25409515" to="385618477" id="flow_25409515_to_385618477_HGV_23400" type="HGV" begin="23400" end="24300" number="9"/>
  <flow from="25409515" to="111657117" id="flow_25409515_to_111657117_HGV_23400" type="HGV" begin="23400" end="24300" number="11"/>
  <flow from="3239957#1" to="385618477" id="flow_3239957#1_to_385618477_HGV_23400" type="HGV" begin="23400" end="24300" number="48"/>
  <flow from="3239957#1" to="111657117" id="flow_3239957#1_to_111657117_HGV_23400" type="HGV" begin="23400" end="24300" number="57"/>
  <flow from="25409515" to="385618477" id="flow_25409515_to_385618477_car_24300" type="car" begin="24300" end="25200" number="30"/>
  <flow from="25409515" to="111657117" id="flow_25409515_to_111657117_car_24300" type="car" begin="24300" end="25200" number="29"/>
  <flow from="3239957#1" to="385618477" id="flow_3239957#1_to_385618477_car_24300" type="car" begin="24300" end="25200" number="228"/>
  <flow from="3239957#1" to="111657117" id="flow_3239957#1_to_111657117_car_24300" type="car" begin="24300" end="25200" number="221"/>
  <flow from="25409515" to="385618477" id="flow_25409515_to_385618477_HGV_24300" type="HGV" begin="24300" end="25200" number="8"/>
  <flow from="25409515" to="111657117" id="flow_25409515_to_111657117_HGV_24300" type="HGV" begin="24300" end="25200" number="8"/>
  <flow from="3239957#1" to="385618477" id="flow_3239957#1_to_385618477_HGV_24300" type="HGV" begin="24300" end="25200" number="61"/>
  <flow from="3239957#1" to="111657117" id="flow_3239957#1_to_111657117_HGV_24300" type="HGV" begin="24300" end="25200" number="59"/>
  <flow from="25409515" to="385618477" id="flow_25409515_to_385618477_car_25200" type="car" begin="25200" end="26100" number="39"/>