<?xml version="1.0" encoding="UTF-8"?>

<!-- generated on 2023-11-24 13:02:11 by Eclipse SUMO netedit Version 1.18.0
<configuration xmlns:xsi="http://www.w3.org/2001/XMLSchema-instance" xsi:noNamespaceSchemaLocation="http://sumo.dlr.de/xsd/neteditConfiguration.xsd">

    <input>
        <sumo-net-file value="/home/nalin/src/Simulations/sumo-paper-grid/sumo-traci-project/data/straight/inputs/straight.net.xml"/>
    </input>

    <output>
        <output-file value="/home/nalin/src/Simulations/sumo-paper-grid/sumo-traci-project/data/straight/inputs/straight.net.xml"/>
    </output>

    <processing>
        <geometry.min-radius.fix.railways value="false"/>
        <geometry.max-grade.fix value="false"/>
        <offset.disable-normalization value="true"/>
        <lefthand value="1"/>
    </processing>

    <junctions>
        <no-turnarounds value="true"/>
        <junctions.corner-detail value="5"/>
        <junctions.limit-turn-speed value="5.50"/>
        <rectangular-lane-cut value="0"/>
    </junctions>

    <pedestrian>
        <walkingareas value="0"/>
    </pedestrian>

</configuration>
-->

<net version="1.16" junctionCornerDetail="5" lefthand="true" limitTurnSpeed="5.50" xmlns:xsi="http://www.w3.org/2001/XMLSchema-instance" xsi:noNamespaceSchemaLocation="http://sumo.dlr.de/xsd/net_file.xsd">

    <location netOffset="0.00,-0.00" convBoundary="0.00,1000.00,4000.00,1000.00" origBoundary="-10000000000.00,-10000000000.00,10000000000.00,10000000000.00" projParameter="!"/>

    <edge id=":J1_0" function="internal">
        <lane id=":J1_0_0" index="0" speed="13.89" length="0.10" shape="100.00,998.40 100.00,998.40">
            <neigh lane=":J1_1_0"/>
        </lane>
    </edge>
    <edge id=":J1_1" function="internal">
        <lane id=":J1_1_0" index="0" speed="13.89" length="0.10" shape="100.00,1001.60 100.00,1001.60">
            <neigh lane=":J1_0_0"/>
        </lane>
    </edge>
    <edge id=":J2_0" function="internal">
        <lane id=":J2_0_0" index="0" speed="13.89" length="0.10" shape="300.00,998.40 300.00,998.40">
            <neigh lane=":J2_1_0"/>
        </lane>
    </edge>
    <edge id=":J2_1" function="internal">
        <lane id=":J2_1_0" index="0" speed="13.89" length="0.10" shape="300.00,1001.60 300.00,1001.60">
            <neigh lane=":J2_0_0"/>
        </lane>
    </edge>
    <edge id=":J3_0" function="internal">
        <lane id=":J3_0_0" index="0" speed="13.89" length="0.10" shape="600.00,998.40 600.00,998.40">
            <neigh lane=":J3_1_0"/>
        </lane>
    </edge>
    <edge id=":J3_1" function="internal">
        <lane id=":J3_1_0" index="0" speed="13.89" length="0.10" shape="600.00,1001.60 600.00,1001.60">
            <neigh lane=":J3_0_0"/>
        </lane>
    </edge>
    <edge id=":J4_0" function="internal">
        <lane id=":J4_0_0" index="0" speed="13.89" length="0.10" shape="1000.00,998.40 1000.00,998.40">
            <neigh lane=":J4_1_0"/>
        </lane>
    </edge>
    <edge id=":J4_1" function="internal">
        <lane id=":J4_1_0" index="0" speed="13.89" length="0.10" shape="1000.00,1001.60 1000.00,1001.60">
            <neigh lane=":J4_0_0"/>
        </lane>
    </edge>
    <edge id=":J5_0" function="internal">
        <lane id=":J5_0_0" index="0" speed="13.89" length="0.10" shape="1500.00,998.40 1500.00,998.40">
            <neigh lane=":J5_1_0"/>
        </lane>
    </edge>
    <edge id=":J5_1" function="internal">
        <lane id=":J5_1_0" index="0" speed="13.89" length="0.10" shape="1500.00,1001.60 1500.00,1001.60">
            <neigh lane=":J5_0_0"/>
        </lane>
    </edge>
    <edge id=":J6_0" function="internal">
        <lane id=":J6_0_0" index="0" speed="13.89" length="0.10" shape="2000.00,998.40 2000.00,998.40">
            <neigh lane=":J6_1_0"/>
        </lane>
    </edge>
    <edge id=":J6_1" function="internal">
        <lane id=":J6_1_0" index="0" speed="13.89" length="0.10" shape="2000.00,1001.60 2000.00,1001.60">
            <neigh lane=":J6_0_0"/>
        </lane>
    </edge>
    <edge id=":J8_0" function="internal">
        <lane id=":J8_0_0" index="0" speed="13.89" length="0.10" shape="3000.00,998.40 3000.00,998.40">
            <neigh lane=":J8_1_0"/>
        </lane>
    </edge>
    <edge id=":J8_1" function="internal">
        <lane id=":J8_1_0" index="0" speed="13.89" length="0.10" shape="3000.00,1001.60 3000.00,1001.60">
            <neigh lane=":J8_0_0"/>
        </lane>
    </edge>

    <edge id="-E0" from="J1" to="J0" priority="-1">
        <lane id="-E0_0" index="0" speed="13.89" length="100.00" shape="100.00,998.40 0.00,998.40">
            <neigh lane="E0_0"/>
        </lane>
    </edge>
    <edge id="-E1" from="J2" to="J1" priority="-1">
        <lane id="-E1_0" index="0" speed="13.89" length="200.00" shape="300.00,998.40 100.00,998.40">
            <neigh lane="E1_0"/>
        </lane>
    </edge>
    <edge id="-E2" from="J3" to="J2" priority="-1">
        <lane id="-E2_0" index="0" speed="13.89" length="300.00" shape="600.00,998.40 300.00,998.40">
            <neigh lane="E2_0"/>
        </lane>
    </edge>
    <edge id="-E3" from="J4" to="J3" priority="-1">
        <lane id="-E3_0" index="0" speed="13.89" length="400.00" shape="1000.00,998.40 600.00,998.40">
            <neigh lane="E3_0"/>
        </lane>
    </edge>
    <edge id="-E4" from="J5" to="J4" priority="-1">
        <lane id="-E4_0" index="0" speed="13.89" length="500.00" shape="1500.00,998.40 1000.00,998.40">
            <neigh lane="E4_0"/>
        </lane>
    </edge>
    <edge id="-E5" from="J6" to="J5" priority="-1">
        <lane id="-E5_0" index="0" speed="13.89" length="500.00" shape="2000.00,998.40 1500.00,998.40">
            <neigh lane="E5_0"/>
        </lane>
    </edge>
    <edge id="-E6" from="J8" to="J6" priority="-1">
        <lane id="-E6_0" index="0" speed="13.89" length="1000.00" shape="3000.00,998.40 2000.00,998.40">
            <neigh lane="E6_0"/>
        </lane>
    </edge>
    <edge id="-E8" from="J9" to="J8" priority="-1">
        <lane id="-E8_0" index="0" speed="13.89" length="1000.00" shape="4000.00,998.40 3000.00,998.40">
            <neigh lane="E8_0"/>
        </lane>
    </edge>
    <edge id="E0" from="J0" to="J1" priority="-1">
        <lane id="E0_0" index="0" speed="13.89" length="100.00" shape="0.00,1001.60 100.00,1001.60">
            <neigh lane="-E0_0"/>
        </lane>
    </edge>
    <edge id="E1" from="J1" to="J2" priority="-1">
        <lane id="E1_0" index="0" speed="13.89" length="200.00" shape="100.00,1001.60 300.00,1001.60">
            <neigh lane="-E1_0"/>
        </lane>
    </edge>
    <edge id="E2" from="J2" to="J3" priority="-1">
        <lane id="E2_0" index="0" speed="13.89" length="300.00" shape="300.00,1001.60 600.00,1001.60">
            <neigh lane="-E2_0"/>
        </lane>
    </edge>
    <edge id="E3" from="J3" to="J4" priority="-1">
        <lane id="E3_0" index="0" speed="13.89" length="400.00" shape="600.00,1001.60 1000.00,1001.60">
            <neigh lane="-E3_0"/>
        </lane>
    </edge>
    <edge id="E4" from="J4" to="J5" priority="-1">
        <lane id="E4_0" index="0" speed="13.89" length="500.00" shape="1000.00,1001.60 1500.00,1001.60">
            <neigh lane="-E4_0"/>
        </lane>
    </edge>
    <edge id="E5" from="J5" to="J6" priority="-1">
        <lane id="E5_0" index="0" speed="13.89" length="500.00" shape="1500.00,1001.60 2000.00,1001.60">
            <neigh lane="-E5_0"/>
        </lane>
    </edge>
    <edge id="E6" from="J6" to="J8" priority="-1">
        <lane id="E6_0" index="0" speed="13.89" length="1000.00" shape="2000.00,1001.60 3000.00,1001.60">
            <neigh lane="-E6_0"/>
        </lane>
    </edge>
    <edge id="E8" from="J8" to="J9" priority="-1">
        <lane id="E8_0" index="0" speed="13.89" length="1000.00" shape="3000.00,1001.60 4000.00,1001.60">
            <neigh lane="-E8_0"/>
        </lane>
    </edge>

    <junction id="J0" type="dead_end" x="0.00" y="1000.00" incLanes="-E0_0" intLanes="" shape="0.00,1000.00 0.00,996.80 0.00,1000.00"/>
    <junction id="J1" type="priority" x="100.00" y="1000.00" incLanes="-E1_0 E0_0" intLanes=":J1_0_0 :J1_1_0" shape="100.00,996.80 100.00,1003.20 100.00,996.80">
        <request index="0" response="00" foes="00" cont="0"/>
        <request index="1" response="00" foes="00" cont="0"/>
    </junction>
    <junction id="J2" type="priority" x="300.00" y="1000.00" incLanes="-E2_0 E1_0" intLanes=":J2_0_0 :J2_1_0" shape="300.00,996.80 300.00,1003.20 300.00,996.80">
        <request index="0" response="00" foes="00" cont="0"/>
        <request index="1" response="00" foes="00" cont="0"/>
    </junction>
    <junction id="J3" type="priority" x="600.00" y="1000.00" incLanes="-E3_0 E2_0" intLanes=":J3_0_0 :J3_1_0" shape="600.00,996.80 600.00,1003.20 600.00,996.80">
        <request index="0" response="00" foes="00" cont="0"/>
        <request index="1" response="00" foes="00" cont="0"/>
    </junction>
    <junction id="J4" type="priority" x="1000.00" y="1000.00" incLanes="-E4_0 E3_0" intLanes=":J4_0_0 :J4_1_0" shape="1000.00,996.80 1000.00,1003.20 1000.00,996.80">
        <request index="0" response="00" foes="00" cont="0"/>
        <request index="1" response="00" foes="00" cont="0"/>
    </junction>
    <junction id="J5" type="priority" x="1500.00" y="1000.00" incLanes="-E5_0 E4_0" intLanes=":J5_0_0 :J5_1_0" shape="1500.00,996.80 1500.00,1003.20 1500.00,996.80">
        <request index="0" response="00" foes="00" cont="0"/>
        <request index="1" response="00" foes="00" cont="0"/>
    </junction>
    <junction id="J6" type="priority" x="2000.00" y="1000.00" incLanes="-E6_0 E5_0" intLanes=":J6_0_0 :J6_1_0" shape="2000.00,996.80 2000.00,1003.20 2000.00,996.80">
        <request index="0" response="00" foes="00" cont="0"/>
        <request index="1" response="00" foes="00" cont="0"/>
    </junction>
    <junction id="J8" type="priority" x="3000.00" y="1000.00" incLanes="-E8_0 E6_0" intLanes=":J8_0_0 :J8_1_0" shape="3000.00,996.80 3000.00,1003.20 3000.00,996.80">
        <request index="0" response="00" foes="00" cont="0"/>
        <request index="1" response="00" foes="00" cont="0"/>
    </junction>
    <junction id="J9" type="dead_end" x="4000.00" y="1000.00" incLanes="E8_0" intLanes="" shape="4000.00,1000.00 4000.00,1003.20 4000.00,1000.00"/>

    <connection from="-E1" to="-E0" fromLane="0" toLane="0" via=":J1_0_0" dir="s" state="M"/>
    <connection from="-E2" to="-E1" fromLane="0" toLane="0" via=":J2_0_0" dir="s" state="M"/>
    <connection from="-E3" to="-E2" fromLane="0" toLane="0" via=":J3_0_0" dir="s" state="M"/>
    <connection from="-E4" to="-E3" fromLane="0" toLane="0" via=":J4_0_0" dir="s" state="M"/>
    <connection from="-E5" to="-E4" fromLane="0" toLane="0" via=":J5_0_0" dir="s" state="M"/>
    <connection from="-E6" to="-E5" fromLane="0" toLane="0" via=":J6_0_0" dir="s" state="M"/>
    <connection from="-E8" to="-E6" fromLane="0" toLane="0" via=":J8_0_0" dir="s" state="M"/>
    <connection from="E0" to="E1" fromLane="0" toLane="0" via=":J1_1_0" dir="s" state="M"/>
    <connection from="E1" to="E2" fromLane="0" toLane="0" via=":J2_1_0" dir="s" state="M"/>
    <connection from="E2" to="E3" fromLane="0" toLane="0" via=":J3_1_0" dir="s" state="M"/>
    <connection from="E3" to="E4" fromLane="0" toLane="0" via=":J4_1_0" dir="s" state="M"/>
    <connection from="E4" to="E5" fromLane="0" toLane="0" via=":J5_1_0" dir="s" state="M"/>
    <connection from="E5" to="E6" fromLane="0" toLane="0" via=":J6_1_0" dir="s" state="M"/>
    <connection from="E6" to="E8" fromLane="0" toLane="0" via=":J8_1_0" dir="s" state="M"/>

    <connection from=":J1_0" to="-E0" fromLane="0" toLane="0" dir="s" state="M"/>
    <connection from=":J1_1" to="E1" fromLane="0" toLane="0" dir="s" state="M"/>
    <connection from=":J2_0" to="-E1" fromLane="0" toLane="0" dir="s" state="M"/>
    <connection from=":J2_1" to="E2" fromLane="0" toLane="0" dir="s" state="M"/>
    <connection from=":J3_0" to="-E2" fromLane="0" toLane="0" dir="s" state="M"/>
    <connection from=":J3_1" to="E3" fromLane="0" toLane="0" dir="s" state="M"/>
    <connection from=":J4_0" to="-E3" fromLane="0" toLane="0" dir="s" state="M"/>
    <connection from=":J4_1" to="E4" fromLane="0" toLane="0" dir="s" state="M"/>
    <connection from=":J5_0" to="-E4" fromLane="0" toLane="0" dir="s" state="M"/>
    <connection from=":J5_1" to="E5" fromLane="0" toLane="0" dir="s" state="M"/>
    <connection from=":J6_0" to="-E5" fromLane="0" toLane="0" dir="s" state="M"/>
    <connection from=":J6_1" to="E6" fromLane="0" toLane="0" dir="s" state="M"/>
    <connection from=":J8_0" to="-E6" fromLane="0" toLane="0" dir="s" state="M"/>
    <connection from=":J8_1" to="E8" fromLane="0" toLane="0" dir="s" state="M"/>

</net>
