<?xml version="1.0" encoding="UTF-8"?>

<!-- generated on 2025-01-10 17:03:25 by Eclipse SUMO netedit Version 1.18.0
<configuration xmlns:xsi="http://www.w3.org/2001/XMLSchema-instance" xsi:noNamespaceSchemaLocation="http://sumo.dlr.de/xsd/neteditConfiguration.xsd">

    <input>
        <sumo-net-file value="exportv4.net.xml"/>
    </input>

    <output>
        <output-file value="exportv4.net.xml"/>
    </output>

    <processing>
        <geometry.min-radius.fix.railways value="false"/>
        <geometry.max-grade.fix value="false"/>
        <offset.disable-normalization value="true"/>
        <lefthand value="1"/>
    </processing>

    <junctions>
        <no-turnarounds value="true"/>
        <junctions.corner-detail value="5"/>
        <junctions.limit-turn-speed value="5.50"/>
        <rectangular-lane-cut value="0"/>
    </junctions>

    <pedestrian>
        <walkingareas value="0"/>
    </pedestrian>

</configuration>
-->

<net version="1.16" junctionCornerDetail="5" lefthand="true" limitTurnSpeed="5.50" xmlns:xsi="http://www.w3.org/2001/XMLSchema-instance" xsi:noNamespaceSchemaLocation="http://sumo.dlr.de/xsd/net_file.xsd">

    <location netOffset="-618313.65,-5806459.51" convBoundary="0.00,0.00,6443.67,1676.09" origBoundary="-1.260579,52.394239,-1.166215,52.410095" projParameter="+proj=utm +zone=30 +ellps=WGS84 +datum=WGS84 +units=m +no_defs"/>

    <type id="highway.motorway" priority="14" numLanes="2" speed="39.44" allow="private emergency authority army vip passenger hov taxi bus coach delivery truck trailer motorcycle evehicle custom1 custom2" oneway="1"/>
    <type id="highway.motorway_link" priority="9" numLanes="1" speed="22.22" allow="private emergency authority army vip passenger hov taxi bus coach delivery truck trailer motorcycle evehicle custom1 custom2" oneway="1"/>
    <type id="highway.trunk" priority="13" numLanes="2" speed="27.78" disallow="pedestrian bicycle tram rail_urban rail rail_electric rail_fast ship" oneway="0"/>

    <edge id=":11641024261_0" function="internal">
        <lane id=":11641024261_0_0" index="0" allow="private emergency authority army vip passenger hov taxi bus coach delivery truck trailer motorcycle evehicle custom1 custom2" speed="22.22" length="8.21" shape="780.05,1418.75 777.66,1419.04 775.97,1418.87 774.28,1418.69 771.89,1418.99"/>
    </edge>
    <edge id=":11641024262_0" function="internal">
        <lane id=":11641024262_0_0" index="0" allow="private emergency authority army vip passenger hov taxi bus coach delivery truck trailer motorcycle evehicle custom1 custom2" speed="22.22" length="8.21" shape="549.34,1514.63 551.75,1514.60 553.40,1514.95 555.06,1515.31 557.47,1515.28"/>
        <lane id=":11641024262_0_1" index="1" allow="private emergency authority army vip passenger hov taxi bus coach delivery truck trailer motorcycle evehicle custom1 custom2" speed="22.22" length="8.21" shape="549.34,1514.63 551.69,1514.10 553.22,1513.37 554.74,1512.63 557.09,1512.10"/>
    </edge>
    <edge id=":1244762499_0" function="internal">
        <lane id=":1244762499_0_0" index="0" disallow="pedestrian bicycle tram rail_urban rail rail_electric rail_fast ship" speed="31.29" length="0.30" shape="967.51,1384.51 967.45,1384.83"/>
        <lane id=":1244762499_0_1" index="1" disallow="pedestrian bicycle tram rail_urban rail rail_electric rail_fast ship" speed="31.29" length="0.30" shape="970.65,1385.16 970.59,1385.45"/>
        <lane id=":1244762499_0_2" index="2" disallow="pedestrian bicycle tram rail_urban rail rail_electric rail_fast ship" speed="31.29" length="0.30" shape="973.78,1385.80 973.73,1386.06"/>
    </edge>
    <edge id=":1244762501_0" function="internal">
        <lane id=":1244762501_0_0" index="0" disallow="pedestrian bicycle tram rail_urban rail rail_electric rail_fast ship" speed="31.29" length="0.30" shape="1065.21,1443.37 1065.28,1443.06"/>
        <lane id=":1244762501_0_1" index="1" disallow="pedestrian bicycle tram rail_urban rail rail_electric rail_fast ship" speed="31.29" length="0.30" shape="1062.09,1442.67 1062.15,1442.37"/>
        <lane id=":1244762501_0_2" index="2" disallow="pedestrian bicycle tram rail_urban rail rail_electric rail_fast ship" speed="31.29" length="0.30" shape="1058.97,1441.96 1059.03,1441.69"/>
    </edge>
    <edge id=":1244767401_0" function="internal">
        <lane id=":1244767401_0_0" index="0" allow="private emergency authority army vip passenger hov taxi bus coach delivery truck trailer motorcycle evehicle custom1 custom2" speed="31.29" length="0.30" shape="3391.21,1240.28 3390.92,1240.29"/>
        <lane id=":1244767401_0_1" index="1" allow="private emergency authority army vip passenger hov taxi bus coach delivery truck trailer motorcycle evehicle custom1 custom2" speed="31.29" length="0.30" shape="3391.37,1243.47 3391.07,1243.49"/>
        <lane id=":1244767401_0_2" index="2" allow="private emergency authority army vip passenger hov taxi bus coach delivery truck trailer motorcycle evehicle custom1 custom2" speed="31.29" length="0.30" shape="3391.53,1246.67 3391.22,1246.68"/>
    </edge>
    <edge id=":1244767413_0" function="internal">
        <lane id=":1244767413_0_0" index="0" allow="private emergency authority army vip passenger hov taxi bus coach delivery truck trailer motorcycle evehicle custom1 custom2" speed="31.29" length="0.30" shape="3425.24,1238.59 3424.96,1238.60"/>
        <lane id=":1244767413_0_1" index="1" allow="private emergency authority army vip passenger hov taxi bus coach delivery truck trailer motorcycle evehicle custom1 custom2" speed="31.29" length="0.30" shape="3425.42,1241.78 3425.12,1241.80"/>
        <lane id=":1244767413_0_2" index="2" allow="private emergency authority army vip passenger hov taxi bus coach delivery truck trailer motorcycle evehicle custom1 custom2" speed="31.29" length="0.30" shape="3425.59,1244.98 3425.28,1244.99"/>
    </edge>
    <edge id=":1271568994_0" function="internal">
        <lane id=":1271568994_0_0" index="0" allow="private emergency authority army vip passenger hov taxi bus coach delivery truck trailer motorcycle evehicle custom1 custom2" speed="31.29" length="0.28" shape="5251.83,1191.77 5252.08,1191.77"/>
        <lane id=":1271568994_0_1" index="1" allow="private emergency authority army vip passenger hov taxi bus coach delivery truck trailer motorcycle evehicle custom1 custom2" speed="31.29" length="0.28" shape="5251.91,1188.57 5252.22,1188.58"/>
    </edge>
    <edge id=":1271569019_0" function="internal">
        <lane id=":1271569019_0_0" index="0" allow="private emergency authority army vip passenger hov taxi bus coach delivery truck trailer motorcycle evehicle custom1 custom2" speed="31.29" length="0.41" shape="5789.69,1039.18 5789.53,1039.26 5789.42,1039.32 5789.32,1039.39 5789.17,1039.49"/>
        <lane id=":1271569019_0_1" index="1" allow="private emergency authority army vip passenger hov taxi bus coach delivery truck trailer motorcycle evehicle custom1 custom2" speed="31.29" length="0.41" shape="5791.17,1042.01 5791.12,1042.04 5791.08,1042.06 5791.05,1042.08 5791.00,1042.12"/>
    </edge>
    <edge id=":1271569052_0" function="internal">
        <lane id=":1271569052_0_0" index="0" allow="private emergency authority army vip passenger hov taxi bus coach delivery truck trailer motorcycle evehicle custom1 custom2" speed="31.29" length="0.10" shape="5653.78,1193.87 5653.75,1193.95"/>
        <lane id=":1271569052_0_1" index="1" allow="private emergency authority army vip passenger hov taxi bus coach delivery truck trailer motorcycle evehicle custom1 custom2" speed="31.29" length="0.10" shape="5656.66,1195.27 5656.69,1195.19"/>
    </edge>
    <edge id=":1498894953_0" function="internal">
        <lane id=":1498894953_0_0" index="0" allow="private emergency authority army vip passenger hov taxi bus coach delivery truck trailer motorcycle evehicle custom1 custom2" speed="31.29" length="0.30" shape="5996.74,189.60 5996.81,189.31"/>
        <lane id=":1498894953_0_1" index="1" allow="private emergency authority army vip passenger hov taxi bus coach delivery truck trailer motorcycle evehicle custom1 custom2" speed="31.29" length="0.30" shape="5993.63,188.87 5993.70,188.58"/>
    </edge>
    <edge id=":1560326493_0" function="internal">
        <lane id=":1560326493_0_0" index="0" allow="private emergency authority army vip passenger hov taxi bus coach delivery truck trailer motorcycle evehicle custom1 custom2" speed="31.29" length="0.30" shape="3656.28,1225.94 3655.96,1225.95"/>
        <lane id=":1560326493_0_1" index="1" allow="private emergency authority army vip passenger hov taxi bus coach delivery truck trailer motorcycle evehicle custom1 custom2" speed="31.29" length="0.30" shape="3656.43,1229.13 3656.13,1229.15"/>
        <lane id=":1560326493_0_2" index="2" allow="private emergency authority army vip passenger hov taxi bus coach delivery truck trailer motorcycle evehicle custom1 custom2" speed="31.29" length="0.30" shape="3656.58,1232.33 3656.31,1232.34"/>
    </edge>
    <edge id=":15820402_0" function="internal">
        <lane id=":15820402_0_0" index="0" allow="private emergency authority army vip passenger hov taxi bus coach delivery truck trailer motorcycle evehicle custom1 custom2" speed="22.22" length="8.20" shape="836.76,1489.03 839.18,1489.16 840.82,1489.62 842.45,1490.07 844.87,1490.16"/>
        <lane id=":15820402_0_1" index="1" allow="private emergency authority army vip passenger hov taxi bus coach delivery truck trailer motorcycle evehicle custom1 custom2" speed="22.22" length="8.20" shape="836.60,1485.84 839.00,1485.96 840.63,1486.42 842.26,1486.88 844.66,1486.97"/>
        <lane id=":15820402_0_2" index="2" allow="private emergency authority army vip passenger hov taxi bus coach delivery truck trailer motorcycle evehicle custom1 custom2" speed="22.22" length="8.20" shape="836.60,1485.84 838.96,1485.47 840.52,1484.83 842.08,1484.18 844.45,1483.78"/>
    </edge>
    <edge id=":15820404_0" function="internal">
        <lane id=":15820404_0_0" index="0" allow="private emergency authority army vip passenger hov taxi bus coach delivery truck trailer motorcycle evehicle custom1 custom2" speed="22.22" length="8.17" shape="893.49,1486.99 895.86,1487.09 897.46,1487.55 899.07,1488.02 901.44,1488.17"/>
        <lane id=":15820404_0_1" index="1" allow="private emergency authority army vip passenger hov taxi bus coach delivery truck trailer motorcycle evehicle custom1 custom2" speed="22.22" length="8.17" shape="893.49,1486.99 895.84,1486.59 897.40,1485.95 898.95,1485.32 901.31,1484.97"/>
        <lane id=":15820404_0_2" index="2" allow="private emergency authority army vip passenger hov taxi bus coach delivery truck trailer motorcycle evehicle custom1 custom2" speed="22.22" length="8.17" shape="893.28,1483.80 895.66,1483.40 897.23,1482.75 898.80,1482.13 901.18,1481.78"/>
        <lane id=":15820404_0_3" index="3" allow="private emergency authority army vip passenger hov taxi bus coach delivery truck trailer motorcycle evehicle custom1 custom2" speed="22.22" length="8.17" shape="893.07,1480.61 895.47,1480.20 897.06,1479.56 898.64,1478.93 901.04,1478.58"/>
    </edge>
    <edge id=":15820406_0" function="internal">
        <lane id=":15820406_0_0" index="0" allow="private emergency authority army vip passenger hov taxi bus coach delivery truck trailer motorcycle evehicle custom1 custom2" speed="26.75" length="16.32" shape="942.70,1495.45 945.95,1498.98 948.08,1501.49 949.95,1504.19 952.42,1508.30"/>
        <lane id=":15820406_0_1" index="1" allow="private emergency authority army vip passenger hov taxi bus coach delivery truck trailer motorcycle evehicle custom1 custom2" speed="26.75" length="16.32" shape="945.32,1493.57 948.62,1497.17 950.78,1499.74 952.68,1502.50 955.18,1506.69"/>
    </edge>
    <edge id=":15820406_2" function="internal">
        <lane id=":15820406_2_0" index="0" disallow="pedestrian bicycle tram rail_urban rail rail_electric rail_fast ship" speed="21.18" length="16.67" shape="949.14,1491.88 949.25,1496.95 949.37,1500.51 950.19,1503.86 952.42,1508.30"/>
        <lane id=":15820406_2_1" index="1" disallow="pedestrian bicycle tram rail_urban rail rail_electric rail_fast ship" speed="15.37" length="16.67" shape="952.33,1491.16 951.82,1495.93 951.91,1499.30 952.93,1502.49 955.18,1506.69"/>
    </edge>
    <edge id=":15820409_0" function="internal">
        <lane id=":15820409_0_0" index="0" disallow="pedestrian bicycle tram rail_urban rail rail_electric rail_fast ship" speed="29.05" length="25.64" shape="977.14,1532.47 983.40,1535.24 989.18,1537.10 994.59,1539.41 999.77,1543.55"/>
        <lane id=":15820409_0_1" index="1" disallow="pedestrian bicycle tram rail_urban rail rail_electric rail_fast ship" speed="29.05" length="25.64" shape="977.83,1529.18 1001.11,1540.40"/>
    </edge>
    <edge id=":15820409_2" function="internal">
        <lane id=":15820409_2_0" index="0" disallow="pedestrian bicycle tram rail_urban rail rail_electric rail_fast ship" speed="18.85" length="25.58" shape="977.83,1529.18 983.56,1532.35 988.62,1534.40 994.36,1535.17 1002.12,1534.55"/>
        <lane id=":15820409_2_1" index="1" disallow="pedestrian bicycle tram rail_urban rail rail_electric rail_fast ship" speed="18.48" length="24.58" shape="977.83,1529.18 983.56,1531.85 988.56,1532.79 994.16,1532.47 1001.65,1531.38"/>
        <lane id=":15820409_2_2" index="2" disallow="pedestrian bicycle tram rail_urban rail rail_electric rail_fast ship" speed="18.30" length="24.09" shape="977.83,1529.18 983.52,1531.35 988.43,1531.19 993.88,1529.79 1001.18,1528.22"/>
    </edge>
    <edge id=":15820412_0" function="internal">
        <lane id=":15820412_0_0" index="0" disallow="pedestrian bicycle tram rail_urban rail rail_electric rail_fast ship" speed="16.18" length="22.15" shape="1023.43,1536.49 1023.90,1530.22 1024.45,1525.76 1026.19,1521.88 1030.22,1517.38"/>
        <lane id=":15820412_0_1" index="1" disallow="pedestrian bicycle tram rail_urban rail rail_electric rail_fast ship" speed="16.58" length="22.15" shape="1020.37,1534.95 1020.95,1528.39 1021.71,1523.76 1023.71,1519.75 1028.03,1515.05"/>
        <lane id=":15820412_0_2" index="2" disallow="pedestrian bicycle tram rail_urban rail rail_electric rail_fast ship" speed="16.98" length="22.15" shape="1017.32,1533.41 1017.99,1526.56 1018.96,1521.76 1021.23,1517.62 1025.84,1512.72"/>
    </edge>
    <edge id=":15820412_3" function="internal">
        <lane id=":15820412_3_0" index="0" disallow="pedestrian bicycle tram rail_urban rail rail_electric rail_fast ship" speed="31.29" length="21.60" shape="1013.38,1530.46 1019.09,1527.75 1022.59,1525.16 1025.70,1521.94 1030.22,1517.38"/>
        <lane id=":15820412_3_1" index="1" disallow="pedestrian bicycle tram rail_urban rail rail_electric rail_fast ship" speed="31.29" length="21.60" shape="1011.02,1527.96 1016.76,1525.28 1020.32,1522.74 1023.48,1519.59 1028.03,1515.05"/>
        <lane id=":15820412_3_2" index="2" disallow="pedestrian bicycle tram rail_urban rail rail_electric rail_fast ship" speed="31.29" length="21.60" shape="1008.66,1525.46 1014.43,1522.81 1018.05,1520.33 1021.26,1517.23 1025.84,1512.72"/>
    </edge>
    <edge id=":15820417_0" function="internal">
        <lane id=":15820417_0_0" index="0" disallow="pedestrian bicycle tram rail_urban rail rail_electric rail_fast ship" speed="31.29" length="0.64" shape="1079.19,1371.61 1079.20,1371.29 1079.20,1371.07 1079.18,1370.85 1079.14,1370.54"/>
        <lane id=":15820417_0_1" index="1" disallow="pedestrian bicycle tram rail_urban rail rail_electric rail_fast ship" speed="31.29" length="0.64" shape="1075.99,1371.53 1076.00,1371.34 1075.99,1371.21 1075.98,1371.08 1075.96,1370.89"/>
        <lane id=":15820417_0_2" index="2" disallow="pedestrian bicycle tram rail_urban rail rail_electric rail_fast ship" speed="31.29" length="0.64" shape="1072.79,1371.46 1072.79,1371.39 1072.79,1371.35 1072.79,1371.31 1072.78,1371.24"/>
    </edge>
    <edge id=":15820418_0" function="internal">
        <lane id=":15820418_0_0" index="0" disallow="pedestrian bicycle tram rail_urban rail rail_electric rail_fast ship" speed="31.29" length="0.64" shape="1077.74,1360.09 1077.69,1359.78 1077.65,1359.56 1077.59,1359.35 1077.50,1359.05"/>
        <lane id=":15820418_0_1" index="1" disallow="pedestrian bicycle tram rail_urban rail rail_electric rail_fast ship" speed="31.29" length="0.64" shape="1074.58,1360.59 1074.55,1360.40 1074.52,1360.27 1074.49,1360.14 1074.44,1359.96"/>
        <lane id=":15820418_0_2" index="2" disallow="pedestrian bicycle tram rail_urban rail rail_electric rail_fast ship" speed="31.29" length="0.64" shape="1071.42,1361.08 1071.41,1361.02 1071.40,1360.98 1071.39,1360.94 1071.37,1360.88"/>
    </edge>
    <edge id=":15820422_0" function="internal">
        <lane id=":15820422_0_0" index="0" disallow="pedestrian bicycle tram rail_urban rail rail_electric rail_fast ship" speed="29.05" length="17.18" shape="1056.45,1327.55 1052.61,1324.29 1050.39,1321.61 1048.55,1318.57 1045.83,1314.24"/>
        <lane id=":15820422_0_1" index="1" disallow="pedestrian bicycle tram rail_urban rail rail_electric rail_fast ship" speed="29.05" length="17.74" shape="1056.45,1327.55 1052.12,1324.53 1049.04,1322.53 1046.34,1320.16 1043.18,1316.03"/>
    </edge>
    <edge id=":15820422_2" function="internal">
        <lane id=":15820422_2_0" index="0" disallow="pedestrian bicycle tram rail_urban rail rail_electric rail_fast ship" speed="31.29" length="17.98" shape="1056.45,1327.55 1051.96,1324.48 1048.54,1322.96 1044.84,1321.96 1039.53,1320.50"/>
        <lane id=":15820422_2_1" index="1" disallow="pedestrian bicycle tram rail_urban rail rail_electric rail_fast ship" speed="31.29" length="17.98" shape="1054.52,1330.09 1050.15,1327.14 1046.81,1325.70 1043.20,1324.79 1038.03,1323.39"/>
        <lane id=":15820422_2_2" index="2" disallow="pedestrian bicycle tram rail_urban rail rail_electric rail_fast ship" speed="31.29" length="17.98" shape="1052.58,1332.64 1048.34,1329.80 1045.08,1328.45 1041.56,1327.61 1036.54,1326.27"/>
    </edge>
    <edge id=":15820424_0" function="internal">
        <lane id=":15820424_0_0" index="0" disallow="pedestrian bicycle tram rail_urban rail rail_electric rail_fast ship" speed="31.29" length="0.70" shape="1015.31,1319.19 1015.01,1319.23 1014.80,1319.26 1014.60,1319.31 1014.30,1319.39"/>
        <lane id=":15820424_0_1" index="1" disallow="pedestrian bicycle tram rail_urban rail rail_electric rail_fast ship" speed="31.29" length="0.70" shape="1015.73,1322.36 1015.54,1322.38 1015.42,1322.40 1015.30,1322.43 1015.12,1322.48"/>
        <lane id=":15820424_0_2" index="2" disallow="pedestrian bicycle tram rail_urban rail rail_electric rail_fast ship" speed="31.29" length="0.70" shape="1016.14,1325.53 1016.59,1325.40"/>
    </edge>
    <edge id=":15820426_0" function="internal">
        <lane id=":15820426_0_0" index="0" disallow="pedestrian bicycle tram rail_urban rail rail_electric rail_fast ship" speed="29.05" length="16.14" shape="1006.43,1313.48 1003.59,1317.25 1001.68,1319.87 999.65,1322.38 996.46,1325.85"/>
        <lane id=":15820426_0_1" index="1" disallow="pedestrian bicycle tram rail_urban rail rail_electric rail_fast ship" speed="29.05" length="16.14" shape="1009.04,1315.34 1006.11,1319.22 1004.14,1321.91 1002.05,1324.50 998.77,1328.07"/>
    </edge>
    <edge id=":15820426_2" function="internal">
        <lane id=":15820426_2_0" index="0" disallow="pedestrian bicycle tram rail_urban rail rail_electric rail_fast ship" speed="18.68" length="17.34" shape="1012.81,1319.78 1007.55,1320.79 1003.73,1321.29 1000.37,1322.56 996.46,1325.85"/>
        <lane id=":15820426_2_1" index="1" disallow="pedestrian bicycle tram rail_urban rail rail_electric rail_fast ship" speed="18.50" length="17.34" shape="1014.92,1322.53 1009.75,1323.45 1005.97,1323.81 1002.62,1324.91 998.77,1328.07"/>
        <lane id=":15820426_2_2" index="2" disallow="pedestrian bicycle tram rail_urban rail rail_electric rail_fast ship" speed="17.96" length="17.34" shape="1016.39,1325.45 1011.51,1326.26 1007.91,1326.47 1004.72,1327.37 1001.08,1330.28"/>
    </edge>
    <edge id=":15820427_0" function="internal">
        <lane id=":15820427_0_0" index="0" allow="private emergency authority army vip passenger hov taxi bus coach delivery truck trailer motorcycle evehicle custom1 custom2" speed="26.75" length="30.39" shape="984.91,1338.20 978.41,1346.29 973.02,1352.97 968.68,1358.07 965.34,1361.42"/>
    </edge>
    <edge id=":15820427_1" function="internal">
        <lane id=":15820427_1_0" index="0" disallow="pedestrian bicycle tram rail_urban rail rail_electric rail_fast ship" speed="30.80" length="26.50" shape="984.91,1338.20 979.94,1344.46 976.93,1349.09 974.84,1354.19 972.65,1361.86"/>
        <lane id=":15820427_1_1" index="1" disallow="pedestrian bicycle tram rail_urban rail rail_electric rail_fast ship" speed="30.51" length="26.50" shape="987.40,1340.22 982.55,1346.37 979.64,1350.94 977.64,1355.97 975.52,1363.51"/>
        <lane id=":15820427_1_2" index="2" disallow="pedestrian bicycle tram rail_urban rail rail_electric rail_fast ship" speed="30.22" length="26.50" shape="989.89,1342.23 985.15,1348.28 982.35,1352.79 980.45,1357.75 978.39,1365.16"/>
    </edge>
    <edge id=":15820429_0" function="internal">
        <lane id=":15820429_0_0" index="0" disallow="pedestrian bicycle tram rail_urban rail rail_electric rail_fast ship" speed="31.29" length="7.86" shape="952.60,1460.79 952.42,1463.09 952.69,1464.69 952.97,1466.30 952.82,1468.60"/>
        <lane id=":15820429_0_1" index="1" disallow="pedestrian bicycle tram rail_urban rail rail_electric rail_fast ship" speed="31.29" length="7.86" shape="955.74,1461.41 955.56,1463.70 955.83,1465.30 956.11,1466.90 955.96,1469.20"/>
    </edge>
    <edge id=":15820429_2" function="internal">
        <lane id=":15820429_2_0" index="0" disallow="pedestrian bicycle tram rail_urban rail rail_electric rail_fast ship" speed="16.12" length="7.39" shape="958.88,1462.02 958.61,1464.16 958.74,1465.65 959.15,1467.13 959.73,1469.25"/>
    </edge>
    <edge id=":15820432_0" function="internal">
        <lane id=":15820432_0_0" index="0" disallow="pedestrian bicycle tram rail_urban rail rail_electric rail_fast ship" speed="31.29" length="13.63" shape="951.31,1476.90 949.19,1490.47"/>
        <lane id=":15820432_0_1" index="1" disallow="pedestrian bicycle tram rail_urban rail rail_electric rail_fast ship" speed="31.29" length="13.63" shape="954.45,1477.50 952.37,1490.86"/>
    </edge>
    <edge id=":15820432_2" function="internal">
        <lane id=":15820432_2_0" index="0" allow="private emergency authority army vip passenger hov taxi bus coach delivery truck trailer motorcycle evehicle custom1 custom2" speed="6.59" length="8.77" shape="944.47,1484.26 946.77,1485.04 948.33,1486.33 949.13,1488.15 949.19,1490.47"/>
        <lane id=":15820432_2_1" index="1" allow="private emergency authority army vip passenger hov taxi bus coach delivery truck trailer motorcycle evehicle custom1 custom2" speed="8.07" length="13.66" shape="945.08,1481.12 948.64,1482.33 951.04,1484.36 952.28,1487.21 952.37,1490.86"/>
    </edge>
    <edge id=":15820434_0" function="internal">
        <lane id=":15820434_0_0" index="0" allow="private emergency authority army vip passenger hov taxi bus coach delivery truck trailer motorcycle evehicle custom1 custom2" speed="22.22" length="8.21" shape="895.51,1390.42 893.12,1390.71 891.43,1390.54 889.74,1390.37 887.35,1390.66"/>
        <lane id=":15820434_0_1" index="1" allow="private emergency authority army vip passenger hov taxi bus coach delivery truck trailer motorcycle evehicle custom1 custom2" speed="22.22" length="8.21" shape="895.51,1390.42 893.23,1391.20 891.79,1392.10 890.35,1393.00 888.07,1393.78"/>
    </edge>
    <edge id=":15820443_0" function="internal">
        <lane id=":15820443_0_0" index="0" disallow="pedestrian bicycle tram rail_urban rail rail_electric rail_fast ship" speed="3.66" length="4.63" shape="1046.61,1625.93 1047.83,1626.68 1048.72,1626.70 1049.27,1626.01 1049.49,1624.60"/>
    </edge>
    <edge id=":15820450_0" function="internal">
        <lane id=":15820450_0_0" index="0" disallow="pedestrian bicycle tram rail_urban rail rail_electric rail_fast ship" speed="26.82" length="0.38" shape="1007.54,1312.04 1007.51,1312.09 1007.49,1312.12 1007.47,1312.15 1007.43,1312.20"/>
        <lane id=":15820450_0_1" index="1" disallow="pedestrian bicycle tram rail_urban rail rail_electric rail_fast ship" speed="26.82" length="0.38" shape="1010.28,1313.70 1010.19,1313.84 1010.13,1313.94 1010.06,1314.03 1009.96,1314.16"/>
    </edge>
    <edge id=":15888635_0" function="internal">
        <lane id=":15888635_0_0" index="0" allow="private emergency authority army vip passenger hov taxi bus coach delivery truck trailer motorcycle evehicle custom1 custom2" speed="22.35" length="0.26" shape="5803.58,942.78 5803.81,942.47"/>
        <lane id=":15888635_0_1" index="1" allow="private emergency authority army vip passenger hov taxi bus coach delivery truck trailer motorcycle evehicle custom1 custom2" speed="22.35" length="0.26" shape="5801.08,940.78 5801.15,940.68"/>
    </edge>
    <edge id=":15888725_0" function="internal">
        <lane id=":15888725_0_0" index="0" allow="private emergency authority army vip passenger hov taxi bus coach delivery truck trailer motorcycle evehicle custom1 custom2" speed="31.29" length="7.62" shape="5813.95,735.13 5813.14,737.18 5812.21,738.41 5811.20,739.61 5810.18,741.58"/>
        <lane id=":15888725_0_1" index="1" allow="private emergency authority army vip passenger hov taxi bus coach delivery truck trailer motorcycle evehicle custom1 custom2" speed="31.29" length="7.62" shape="5813.95,735.13 5813.60,737.38 5813.70,738.98 5813.73,740.56 5813.16,742.74"/>
    </edge>
    <edge id=":15889890_0" function="internal">
        <lane id=":15889890_0_0" index="0" allow="private emergency authority army vip passenger hov taxi bus coach delivery truck trailer motorcycle evehicle custom1 custom2" speed="11.44" length="10.09" shape="929.06,1487.02 931.95,1487.15 933.86,1487.86 935.58,1489.16 937.89,1491.08"/>
        <lane id=":15889890_0_1" index="1" allow="private emergency authority army vip passenger hov taxi bus coach delivery truck trailer motorcycle evehicle custom1 custom2" speed="12.13" length="11.38" shape="928.93,1483.83 932.22,1483.90 934.44,1484.55 936.45,1485.87 939.10,1487.96"/>
    </edge>
    <edge id=":15889890_2" function="internal">
        <lane id=":15889890_2_0" index="0" allow="private emergency authority army vip passenger hov taxi bus coach delivery truck trailer motorcycle evehicle custom1 custom2" speed="22.22" length="11.77" shape="928.80,1480.63 932.17,1481.01 934.37,1482.09 936.57,1483.27 939.94,1483.96"/>
        <lane id=":15889890_2_1" index="1" allow="private emergency authority army vip passenger hov taxi bus coach delivery truck trailer motorcycle evehicle custom1 custom2" speed="22.22" length="11.77" shape="928.67,1477.43 932.04,1477.81 934.23,1478.88 936.43,1480.06 939.80,1480.74"/>
    </edge>
    <edge id=":1763158482_0" function="internal">
        <lane id=":1763158482_0_0" index="0" allow="private emergency authority army vip passenger hov taxi bus coach delivery truck trailer motorcycle evehicle custom1 custom2" speed="26.82" length="0.25" shape="5930.82,544.94 5930.85,544.74"/>
        <lane id=":1763158482_0_1" index="1" allow="private emergency authority army vip passenger hov taxi bus coach delivery truck trailer motorcycle evehicle custom1 custom2" speed="26.82" length="0.25" shape="5927.65,544.49 5927.69,544.19"/>
    </edge>
    <edge id=":203165_0" function="internal">
        <lane id=":203165_0_0" index="0" allow="private emergency authority army vip passenger hov taxi bus coach delivery truck trailer motorcycle evehicle custom1 custom2" speed="26.75" length="0.23" shape="5598.87,1140.25 5599.11,1140.08"/>
        <lane id=":203165_0_1" index="1" allow="private emergency authority army vip passenger hov taxi bus coach delivery truck trailer motorcycle evehicle custom1 custom2" speed="26.75" length="0.23" shape="5597.04,1137.63 5597.17,1137.53"/>
    </edge>
    <edge id=":208601_0" function="internal">
        <lane id=":208601_0_0" index="0" allow="private emergency authority army vip passenger hov taxi bus coach delivery truck trailer motorcycle evehicle custom1 custom2" speed="31.29" length="0.29" shape="4509.79,1186.23 4509.46,1186.24"/>
        <lane id=":208601_0_1" index="1" allow="private emergency authority army vip passenger hov taxi bus coach delivery truck trailer motorcycle evehicle custom1 custom2" speed="31.29" length="0.29" shape="4509.92,1189.42 4509.62,1189.44"/>
        <lane id=":208601_0_2" index="2" allow="private emergency authority army vip passenger hov taxi bus coach delivery truck trailer motorcycle evehicle custom1 custom2" speed="31.29" length="0.29" shape="4510.04,1192.62 4509.79,1192.63"/>
    </edge>
    <edge id=":2389671766_0" function="internal">
        <lane id=":2389671766_0_0" index="0" allow="private emergency authority army vip passenger hov taxi bus coach delivery truck trailer motorcycle evehicle custom1 custom2" speed="31.29" length="0.10" shape="5409.62,1182.20 5409.70,1182.20"/>
        <lane id=":2389671766_0_1" index="1" allow="private emergency authority army vip passenger hov taxi bus coach delivery truck trailer motorcycle evehicle custom1 custom2" speed="31.29" length="0.10" shape="5409.68,1185.40 5409.60,1185.40"/>
    </edge>
    <edge id=":24495441_0" function="internal">
        <lane id=":24495441_0_0" index="0" allow="private emergency authority army vip passenger hov taxi bus coach delivery truck trailer motorcycle evehicle custom1 custom2" speed="31.29" length="0.10" shape="5736.36,1278.72 5736.36,1278.72"/>
    </edge>
    <edge id=":2487656109_0" function="internal">