<?xml version="1.0" encoding="UTF-8"?>

<!-- generated on 2024-12-20 13:32:09 by Eclipse SUMO netedit Version 1.18.0
<configuration xmlns:xsi="http://www.w3.org/2001/XMLSchema-instance" xsi:noNamespaceSchemaLocation="http://sumo.dlr.de/xsd/neteditConfiguration.xsd">

    <input>
        <sumo-net-file value="/home/don/src/sumo-paper-grid/sumo-tester/tester.net.xml"/>
    </input>

    <output>
        <output-file value="/home/don/src/sumo-paper-grid/sumo-tester/tester.net.xml"/>
    </output>

    <processing>
        <geometry.min-radius.fix.railways value="false"/>
        <geometry.max-grade.fix value="false"/>
        <offset.disable-normalization value="true"/>
        <lefthand value="1"/>
    </processing>

    <junctions>
        <no-turnarounds value="true"/>
        <junctions.corner-detail value="5"/>
        <junctions.limit-turn-speed value="5.50"/>
        <rectangular-lane-cut value="0"/>
    </junctions>

    <pedestrian>
        <walkingareas value="0"/>
    </pedestrian>

</configuration>
-->

<net version="1.16" junctionCornerDetail="5" lefthand="true" limitTurnSpeed="5.50" xmlns:xsi="http://www.w3.org/2001/XMLSchema-instance" xsi:noNamespaceSchemaLocation="http://sumo.dlr.de/xsd/net_file.xsd">

    <location netOffset="0.00,0.00" convBoundary="100.00,79.90,7600.10,100.00" origBoundary="-10000000000.00,-10000000000.00,10000000000.00,10000000000.00" projParameter="!"/>

    <edge id=":J1_0" function="internal">
        <lane id=":J1_0_0" index="0" speed="31.29" length="0.10" shape="600.00,104.80 600.00,104.80"/>
        <lane id=":J1_0_1" index="1" speed="31.29" length="0.10" shape="600.00,101.60 600.00,101.60"/>
    </edge>
    <edge id=":J2_0" function="internal">
        <lane id=":J2_0_0" index="0" speed="31.29" length="0.10" shape="6600.00,104.80 6600.00,104.80"/>
        <lane id=":J2_0_1" index="1" speed="31.29" length="0.10" shape="6600.00,101.60 6600.00,101.60"/>
    </edge>
    <edge id=":K1_0" function="internal">
        <lane id=":K1_0_0" index="0" speed="31.29" length="0.10" shape="600.00,81.60 600.00,81.60"/>
    </edge>
    <edge id=":K2_0" function="internal">
        <lane id=":K2_0_0" index="0" speed="31.29" length="0.10" shape="6600.00,81.60 6600.00,81.60"/>
    </edge>

    <edge id="E0" from="J0" to="J1" priority="-1">
        <lane id="E0_0" index="0" speed="31.29" length="500.00" shape="100.00,104.80 600.00,104.80"/>
        <lane id="E0_1" index="1" speed="31.29" length="500.00" shape="100.00,101.60 600.00,101.60"/>
    </edge>
    <edge id="E1" from="J1" to="J2" priority="-1">
        <lane id="E1_0" index="0" speed="31.29" length="6000.00" shape="600.00,104.80 6600.00,104.80"/>
        <lane id="E1_1" index="1" speed="31.29" length="6000.00" shape="600.00,101.60 6600.00,101.60"/>
    </edge>
    <edge id="E2" from="J2" to="J3" priority="-1">
        <lane id="E2_0" index="0" speed="31.29" length="1000.00" shape="6600.00,104.80 7600.00,104.80"/>
        <lane id="E2_1" index="1" speed="31.29" length="1000.00" shape="6600.00,101.60 7600.00,101.60"/>
    </edge>
    <edge id="F0" from="K0" to="K1" priority="-1" length="500.00">
        <lane id="F0_0" index="0" speed="31.29" length="500.00" shape="100.00,81.60 600.00,81.60"/>
    </edge>
    <edge id="F1" from="K1" to="K2" priority="-1">
        <lane id="F1_0" index="0" speed="31.29" length="6000.00" shape="600.00,81.60 6600.00,81.60"/>
    </edge>
    <edge id="F2" from="K2" to="K3" priority="-1" shape="6600.00,80.00 7600.10,79.90">
        <lane id="F2_0" index="0" speed="31.29" length="1000.00" shape="6600.00,81.60 7600.00,81.50"/>
    </edge>

    <junction id="J0" type="dead_end" x="100.00" y="100.00" incLanes="" intLanes="" shape="100.00,100.00 100.00,106.40"/>
    <junction id="J1" type="priority" x="600.00" y="100.00" incLanes="E0_0 E0_1" intLanes=":J1_0_0 :J1_0_1" shape="600.00,100.00 600.00,106.40 600.00,100.00">
        <request index="0" response="00" foes="00" cont="0"/>
        <request index="1" response="00" foes="00" cont="0"/>
    </junction>
    <junction id="J2" type="priority" x="6600.00" y="100.00" incLanes="E1_0 E1_1" intLanes=":J2_0_0 :J2_0_1" shape="6600.00,100.00 6600.00,106.40 6600.00,100.00">
        <request index="0" response="00" foes="00" cont="0"/>
        <request index="1" response="00" foes="00" cont="0"/>
    </junction>
    <junction id="J3" type="dead_end" x="7600.00" y="100.00" incLanes="E2_0 E2_1" intLanes="" shape="7600.00,106.40 7600.00,100.00"/>
    <junction id="K0" type="dead_end" x="100.00" y="80.00" incLanes="" intLanes="" shape="100.00,80.00 100.00,83.20"/>
    <junction id="K1" type="priority" x="600.00" y="80.00" incLanes="F0_0" intLanes=":K1_0_0" shape="600.00,80.00 600.00,83.20 600.00,80.00">
        <request index="0" response="0" foes="0" cont="0"/>
    </junction>
    <junction id="K2" type="priority" x="6600.00" y="80.00" incLanes="F1_0" intLanes=":K2_0_0" shape="6600.00,80.00 6600.00,83.20 6600.00,80.00">
        <request index="0" response="0" foes="0" cont="0"/>
    </junction>
    <junction id="K3" type="dead_end" x="7600.00" y="80.00" incLanes="F2_0" intLanes="" shape="7600.00,83.10 7600.00,79.90"/>

    <connection from="E0" to="E1" fromLane="0" toLane="0" via=":J1_0_0" dir="s" state="M"/>
    <connection from="E0" to="E1" fromLane="1" toLane="1" via=":J1_0_1" dir="s" state="M"/>
    <connection from="E1" to="E2" fromLane="0" toLane="0" via=":J2_0_0" dir="s" state="M"/>
    <connection from="E1" to="E2" fromLane="1" toLane="1" via=":J2_0_1" dir="s" state="M"/>
    <connection from="F0" to="F1" fromLane="0" toLane="0" via=":K1_0_0" dir="s" state="M"/>
    <connection from="F1" to="F2" fromLane="0" toLane="0" via=":K2_0_0" dir="s" state="M"/>

    <connection from=":J1_0" to="E1" fromLane="0" toLane="0" dir="s" state="M"/>
    <connection from=":J1_0" to="E1" fromLane="1" toLane="1" dir="s" state="M"/>
    <connection from=":J2_0" to="E2" fromLane="0" toLane="0" dir="s" state="M"/>
    <connection from=":J2_0" to="E2" fromLane="1" toLane="1" dir="s" state="M"/>
    <connection from=":K1_0" to="F1" fromLane="0" toLane="0" dir="s" state="M"/>
    <connection from=":K2_0" to="F2" fromLane="0" toLane="0" dir="s" state="M"/>

</net>
