<routes>
    <vType id="car" vClass="passenger" lcKeepRight="0.9" color="yellow"/>
    <vType id="HGV" vClass="truck"  maxSpeed="31.0" accel="1.3" decel="3.5" lcStrategic="0.2" lcCooperative="0.5" lcKeepRight="1.0" color="red"/>

    <flow id="traffic1" from="3239957#0" to="385618477" type="car" begin="0" end="3600" vehsPerHour="360" departSpeed="avg" departLane="best"/>
    <flow id="traffic2" from="3239957#0" to="385618477" type="HGV" begin="0" end="3600" vehsPerHour="360" departSpeed="avg" departLane="best"/>

</routes>

