<?xml version="1.0" encoding="UTF-8"?>

<!-- generated on 2025-01-05 23:20:19 by Eclipse SUMO netedit Version 1.18.0
<configuration xmlns:xsi="http://www.w3.org/2001/XMLSchema-instance" xsi:noNamespaceSchemaLocation="http://sumo.dlr.de/xsd/neteditConfiguration.xsd">

    <input>
        <sumo-net-file value="export.net.xml"/>
    </input>

    <output>
        <output-file value="export.net.xml"/>
    </output>

    <processing>
        <geometry.min-radius.fix.railways value="false"/>
        <geometry.max-grade.fix value="false"/>
        <offset.disable-normalization value="true"/>
        <lefthand value="0"/>
    </processing>

    <junctions>
        <no-internal-links value="true"/>
        <no-turnarounds value="true"/>
        <junctions.corner-detail value="5"/>
        <junctions.limit-turn-speed value="5.50"/>
        <rectangular-lane-cut value="0"/>
    </junctions>

    <pedestrian>
        <walkingareas value="0"/>
    </pedestrian>

</configuration>
-->

<net version="1.16" junctionCornerDetail="5" limitTurnSpeed="5.50" xmlns:xsi="http://www.w3.org/2001/XMLSchema-instance" xsi:noNamespaceSchemaLocation="http://sumo.dlr.de/xsd/net_file.xsd">

    <location netOffset="-618313.65,-5806459.51" convBoundary="0.00,0.00,6443.67,1615.68" origBoundary="-1.260579,52.394239,-1.166215,52.410095" projParameter="+proj=utm +zone=30 +ellps=WGS84 +datum=WGS84 +units=m +no_defs"/>

    <type id="highway.motorway" priority="14" numLanes="2" speed="39.44" allow="private emergency authority army vip passenger hov taxi bus coach delivery truck trailer motorcycle evehicle custom1 custom2" oneway="1"/>
    <type id="highway.motorway_link" priority="9" numLanes="1" speed="22.22" allow="private emergency authority army vip passenger hov taxi bus coach delivery truck trailer motorcycle evehicle custom1 custom2" oneway="1"/>

    <edge id="-579" from="-25355" to="-25361" priority="14" type="highway.motorway" spreadType="center" shape="3391.22,1243.48 2599.01,1281.34 2221.13,1299.29 2028.45,1308.95 1904.76,1315.94 1665.50,1332.79 1574.23,1340.11">
        <lane id="-579_0" index="0" allow="private emergency authority army vip passenger hov taxi bus coach delivery truck trailer motorcycle evehicle custom1 custom2" speed="31.29" length="1869.92" shape="3391.22,1246.68 2599.16,1284.54 2221.29,1302.49 2028.62,1312.15 1904.96,1319.13 1665.74,1335.98 1541.91,1345.91"/>
        <lane id="-579_1" index="1" allow="private emergency authority army vip passenger hov taxi bus coach delivery truck trailer motorcycle evehicle custom1 custom2" speed="31.29" length="1869.92" shape="3391.07,1243.49 2599.01,1281.34 2221.13,1299.29 2028.45,1308.95 1904.76,1315.94 1665.50,1332.79 1541.66,1342.72"/>
        <lane id="-579_2" index="2" allow="private emergency authority army vip passenger hov taxi bus coach delivery truck trailer motorcycle evehicle custom1 custom2" speed="31.29" length="1869.92" shape="3390.92,1240.29 2598.86,1278.14 2220.97,1296.09 2028.28,1305.75 1904.56,1312.75 1665.26,1329.60 1541.40,1339.53"/>
        <param key="ref" value="M6"/>
    </edge>
    <edge id="-580" from="-25362" to="-25376" priority="9" type="highway.motorway_link" spreadType="center" shape="5813.00,738.71 5795.66,783.63 5772.56,833.52 5756.03,862.86 5732.17,902.87 5709.99,933.50 5678.39,970.40 5651.77,995.75 5631.51,1012.44 5590.05,1045.81 5558.59,1068.56 5520.45,1090.82 5483.41,1107.91 5450.29,1121.81 5408.60,1135.22">
        <lane id="-580_0" index="0" allow="private emergency authority army vip passenger hov taxi bus coach delivery truck trailer motorcycle evehicle custom1 custom2" speed="31.29" length="589.51" shape="5813.16,742.74 5797.13,784.25 5773.99,834.25 5757.41,863.66 5733.51,903.75 5711.25,934.49 5679.55,971.50 5652.83,996.95 5632.52,1013.68 5591.02,1047.08 5559.46,1069.90 5521.19,1092.24 5484.05,1109.37 5450.85,1123.31 5409.23,1136.70"/>
        <lane id="-580_1" index="1" allow="private emergency authority army vip passenger hov taxi bus coach delivery truck trailer motorcycle evehicle custom1 custom2" speed="31.29" length="589.51" shape="5810.18,741.58 5794.19,783.01 5771.13,832.79 5754.65,862.06 5730.83,901.99 5708.73,932.51 5677.23,969.30 5650.71,994.55 5630.50,1011.20 5589.08,1044.54 5557.72,1067.22 5519.71,1089.40 5482.77,1106.45 5449.73,1120.31 5408.25,1133.65"/>
        <param key="ref" value="M6"/>
    </edge>
    <edge id="-581" from="-25377" to="-25378" priority="14" type="highway.motorway" spreadType="center">
        <lane id="-581_0" index="0" allow="private emergency authority army vip passenger hov taxi bus coach delivery truck trailer motorcycle evehicle custom1 custom2" speed="31.29" length="84.39" shape="4519.54,1201.19 4599.70,1196.34"/>
        <lane id="-581_1" index="1" allow="private emergency authority army vip passenger hov taxi bus coach delivery truck trailer motorcycle evehicle custom1 custom2" speed="31.29" length="84.39" shape="4519.73,1204.38 4599.89,1199.54"/>
        <lane id="-581_2" index="2" allow="private emergency authority army vip passenger hov taxi bus coach delivery truck trailer motorcycle evehicle custom1 custom2" speed="31.29" length="84.39" shape="4519.92,1207.58 4600.09,1202.73"/>
        <param key="ref" value="M6"/>
    </edge>
    <edge id="-582#0" from="-25379" to="-25382" priority="14" type="highway.motorway" spreadType="center" shape="7.46,1615.68 106.74,1591.46 256.60,1558.07 365.53,1535.39">
        <lane id="-582#0_0" index="0" allow="private emergency authority army vip passenger hov taxi bus coach delivery truck trailer motorcycle evehicle custom1 custom2" speed="31.29" length="422.65" shape="6.70,1612.57 106.01,1588.34 255.93,1554.94 392.60,1526.48"/>
        <lane id="-582#0_1" index="1" allow="private emergency authority army vip passenger hov taxi bus coach delivery truck trailer motorcycle evehicle custom1 custom2" speed="31.29" length="422.65" shape="7.46,1615.68 106.74,1591.46 256.60,1558.07 393.26,1529.62"/>
        <lane id="-582#0_2" index="2" allow="private emergency authority army vip passenger hov taxi bus coach delivery truck trailer motorcycle evehicle custom1 custom2" speed="31.29" length="422.65" shape="8.22,1618.79 107.47,1594.58 257.27,1561.20 393.91,1532.75"/>
        <param key="ref" value="M6"/>
    </edge>
    <edge id="-582#1" from="-25382" to="-25389" priority="14" type="highway.motorway" spreadType="center" shape="365.53,1535.39 551.65,1498.08 711.68,1469.95 823.88,1452.72 977.46,1427.57 1089.18,1411.65 1326.91,1380.29 1544.03,1359.49">
        <lane id="-582#1_0" index="0" allow="private emergency authority army vip passenger hov taxi bus coach delivery truck trailer motorcycle evehicle custom1 custom2" speed="31.29" length="1064.03" shape="437.65,1517.67 551.06,1494.93 711.16,1466.79 823.38,1449.56 976.98,1424.41 1088.75,1408.48 1326.55,1377.11 1453.81,1364.92"/>
        <lane id="-582#1_1" index="1" allow="private emergency authority army vip passenger hov taxi bus coach delivery truck trailer motorcycle evehicle custom1 custom2" speed="31.29" length="1064.03" shape="438.28,1520.81 551.65,1498.08 711.68,1469.95 823.88,1452.72 977.46,1427.57 1089.18,1411.65 1326.91,1380.29 1454.11,1368.10"/>
        <lane id="-582#1_2" index="2" allow="private emergency authority army vip passenger hov taxi bus coach delivery truck trailer motorcycle evehicle custom1 custom2" speed="31.29" length="1064.03" shape="438.91,1523.94 552.24,1501.23 712.20,1473.11 824.38,1455.88 977.94,1430.73 1089.61,1414.82 1327.27,1383.47 1454.42,1371.29"/>
        <param key="ref" value="M6"/>
    </edge>
    <edge id="-583" from="-25390" to="-25391" priority="14" type="highway.motorway" spreadType="center">
        <lane id="-583_0" index="0" allow="private emergency authority army vip passenger hov taxi bus coach delivery truck trailer motorcycle evehicle custom1 custom2" speed="31.29" length="29.94" shape="4509.79,1192.63 4480.17,1194.13"/>
        <lane id="-583_1" index="1" allow="private emergency authority army vip passenger hov taxi bus coach delivery truck trailer motorcycle evehicle custom1 custom2" speed="31.29" length="29.94" shape="4509.62,1189.44 4480.01,1190.93"/>
        <lane id="-583_2" index="2" allow="private emergency authority army vip passenger hov taxi bus coach delivery truck trailer motorcycle evehicle custom1 custom2" speed="31.29" length="29.94" shape="4509.46,1186.24 4479.85,1187.74"/>
        <param key="ref" value="M6"/>
    </edge>
    <edge id="-584" from="-25392" to="-25395" priority="9" type="highway.motorway_link" spreadType="center" shape="553.31,1514.16 701.94,1496.61 771.10,1490.84 840.67,1487.23">
        <lane id="-584_0" index="0" allow="private emergency authority army vip passenger hov taxi bus coach delivery truck trailer motorcycle evehicle custom1 custom2" speed="22.22" length="288.73" shape="557.09,1512.10 701.78,1495.02 770.99,1489.24 836.60,1485.84"/>
        <lane id="-584_1" index="1" allow="private emergency authority army vip passenger hov taxi bus coach delivery truck trailer motorcycle evehicle custom1 custom2" speed="22.22" length="288.73" shape="557.47,1515.28 702.10,1498.20 771.21,1492.44 836.76,1489.03"/>
    </edge>
    <edge id="-585" from="-25396" to="-25399" priority="9" type="highway.motorway_link" spreadType="center" shape="775.79,1418.09 686.68,1438.69 508.24,1480.44 424.62,1499.77">
        <lane id="-585_0" index="0" allow="private emergency authority army vip passenger hov taxi bus coach delivery truck trailer motorcycle evehicle custom1 custom2" speed="22.22" length="360.54" shape="771.89,1418.99 686.68,1438.69 508.24,1480.44 424.62,1499.77"/>
    </edge>
    <edge id="-587" from="-25410" to="-25415" priority="9" type="highway.motorway_link" spreadType="center" shape="984.65,1343.61 965.29,1361.47 951.40,1373.25 938.47,1379.43 925.97,1383.35 891.61,1391.32">
        <lane id="-587_0" index="0" allow="private emergency authority army vip passenger hov taxi bus coach delivery truck trailer motorcycle evehicle custom1 custom2" speed="22.22" length="107.26" shape="984.65,1343.61 965.29,1361.47 951.40,1373.25 938.47,1379.43 925.97,1383.35 895.51,1390.42"/>
    </edge>
    <edge id="-588" from="-25416" to="-25420" priority="9" type="highway.motorway_link" spreadType="center" shape="923.53,1482.45 934.96,1486.78 941.71,1492.01 947.18,1497.96 952.80,1505.78">
        <lane id="-588_0" index="0" allow="private emergency authority army vip passenger hov taxi bus coach delivery truck trailer motorcycle evehicle custom1 custom2" speed="22.22" length="27.87" shape="939.10,1487.96 942.80,1490.83 948.42,1496.95 954.10,1504.85"/>
        <lane id="-588_1" index="1" allow="private emergency authority army vip passenger hov taxi bus coach delivery truck trailer motorcycle evehicle custom1 custom2" speed="22.22" length="27.87" shape="937.89,1491.08 940.62,1493.19 945.94,1498.97 951.50,1506.71"/>
    </edge>
    <edge id="-589" from="-25421" to="-25431" priority="9" type="highway.motorway_link" spreadType="center" shape="5802.41,941.68 5828.63,902.72 5847.61,868.37 5860.51,841.63 5867.81,822.09 5877.22,794.61 5886.90,763.27 5896.70,727.35 5905.34,689.02 5916.43,635.79 5929.25,544.59">
        <lane id="-589_0" index="0" allow="private emergency authority army vip passenger hov taxi bus coach delivery truck trailer motorcycle evehicle custom1 custom2" speed="22.35" length="421.60" shape="5801.15,940.68 5827.26,901.88 5846.19,867.63 5859.04,841.00 5866.30,821.55 5875.70,794.11 5885.36,762.82 5895.15,726.96 5903.78,688.68 5914.85,635.52 5927.65,544.49"/>
        <lane id="-589_1" index="1" allow="private emergency authority army vip passenger hov taxi bus coach delivery truck trailer motorcycle evehicle custom1 custom2" speed="22.35" length="421.60" shape="5803.81,942.47 5830.00,903.56 5849.03,869.11 5861.98,842.26 5869.32,822.63 5878.74,795.11 5888.44,763.72 5898.25,727.74 5906.90,689.36 5918.01,636.06 5930.82,544.94"/>
        <param key="ref" value="M6"/>
    </edge>
    <edge id="-590" from="-25361" to="-25442" priority="9" type="highway.motorway_link" spreadType="center" shape="1574.23,1340.11 1503.94,1339.63 1333.71,1346.74 1235.02,1350.49 1193.30,1351.91 1152.23,1352.32 1117.32,1353.67 1100.54,1353.60 1093.38,1353.03 1085.86,1351.13 1079.70,1348.63 1067.28,1341.76">
        <lane id="-590_0" index="0" allow="private emergency authority army vip passenger hov taxi bus coach delivery truck trailer motorcycle evehicle custom1 custom2" speed="22.22" length="460.15" shape="1515.00,1339.71 1503.94,1339.63 1333.71,1346.74 1235.02,1350.49 1193.30,1351.91 1152.23,1352.32 1117.32,1353.67 1100.54,1353.60 1093.38,1353.03 1085.86,1351.13 1079.70,1348.63 1067.28,1341.76"/>
    </edge>
    <edge id="-591" from="-25443" to="-25448" priority="9" type="highway.motorway_link" spreadType="center" shape="1123.01,1443.30 1174.06,1430.90 1238.54,1414.64 1318.91,1396.80 1362.76,1388.16 1441.87,1376.98">
        <lane id="-591_0" index="0" allow="private emergency authority army vip passenger hov taxi bus coach delivery truck trailer motorcycle evehicle custom1 custom2" speed="22.22" length="325.95" shape="1126.90,1442.36 1174.06,1430.90 1238.54,1414.64 1318.91,1396.80 1362.76,1388.16 1441.74,1377.00"/>
    </edge>
    <edge id="-592" from="-25449" to="-25452" priority="14" type="highway.motorway" spreadType="center" shape="4452.38,1191.75 4187.69,1204.58 3683.33,1227.86 3656.28,1229.14">
        <lane id="-592_0" index="0" allow="private emergency authority army vip passenger hov taxi bus coach delivery truck trailer motorcycle evehicle custom1 custom2" speed="31.29" length="796.98" shape="4452.39,1194.95 4187.84,1207.78 3683.48,1231.06 3656.58,1232.33"/>
        <lane id="-592_1" index="1" allow="private emergency authority army vip passenger hov taxi bus coach delivery truck trailer motorcycle evehicle custom1 custom2" speed="31.29" length="796.98" shape="4452.24,1191.76 4187.69,1204.58 3683.33,1227.86 3656.43,1229.13"/>
        <lane id="-592_2" index="2" allow="private emergency authority army vip passenger hov taxi bus coach delivery truck trailer motorcycle evehicle custom1 custom2" speed="31.29" length="796.98" shape="4452.08,1188.56 4187.54,1201.38 3683.18,1224.66 3656.28,1225.94"/>
        <param key="ref" value="M6"/>
    </edge>
    <edge id="-593" from="-25453" to="-25377" priority="14" type="highway.motorway" spreadType="center">
        <lane id="-593_0" index="0" allow="private emergency authority army vip passenger hov taxi bus coach delivery truck trailer motorcycle evehicle custom1 custom2" speed="31.29" length="49.64" shape="4469.99,1203.29 4519.31,1201.20"/>
        <lane id="-593_1" index="1" allow="private emergency authority army vip passenger hov taxi bus coach delivery truck trailer motorcycle evehicle custom1 custom2" speed="31.29" length="49.64" shape="4470.13,1206.48 4519.45,1204.40"/>
        <lane id="-593_2" index="2" allow="private emergency authority army vip passenger hov taxi bus coach delivery truck trailer motorcycle evehicle custom1 custom2" speed="31.29" length="49.64" shape="4470.27,1209.68 4519.58,1207.59"/>
        <param key="ref" value="M6"/>
    </edge>
    <edge id="-594" from="-25454" to="-25453" priority="14" type="highway.motorway" spreadType="center">
        <lane id="-594_0" index="0" allow="private emergency authority army vip passenger hov taxi bus coach delivery truck trailer motorcycle evehicle custom1 custom2" speed="31.29" length="24.26" shape="4445.72,1204.79 4469.65,1203.30"/>
        <lane id="-594_1" index="1" allow="private emergency authority army vip passenger hov taxi bus coach delivery truck trailer motorcycle evehicle custom1 custom2" speed="31.29" length="24.26" shape="4445.92,1207.98 4469.85,1206.50"/>
        <lane id="-594_2" index="2" allow="private emergency authority army vip passenger hov taxi bus coach delivery truck trailer motorcycle evehicle custom1 custom2" speed="31.29" length="24.26" shape="4446.12,1211.18 4470.05,1209.69"/>
        <param key="ref" value="M6"/>
    </edge>
    <edge id="-595" from="-25391" to="-25449" priority="14" type="highway.motorway" spreadType="center">
        <lane id="-595_0" index="0" allow="private emergency authority army vip passenger hov taxi bus coach delivery truck trailer motorcycle evehicle custom1 custom2" speed="31.29" length="27.50" shape="4479.83,1194.14 4452.62,1194.94"/>
        <lane id="-595_1" index="1" allow="private emergency authority army vip passenger hov taxi bus coach delivery truck trailer motorcycle evehicle custom1 custom2" speed="31.29" length="27.50" shape="4479.73,1190.94 4452.52,1191.75"/>
        <lane id="-595_2" index="2" allow="private emergency authority army vip passenger hov taxi bus coach delivery truck trailer motorcycle evehicle custom1 custom2" speed="31.29" length="27.50" shape="4479.64,1187.75 4452.43,1188.55"/>
        <param key="ref" value="M6"/>
    </edge>
    <edge id="-596" from="-25455" to="-25355" priority="14" type="highway.motorway" spreadType="center">
        <lane id="-596_0" index="0" allow="private emergency authority army vip passenger hov taxi bus coach delivery truck trailer motorcycle evehicle custom1 custom2" speed="31.29" length="34.09" shape="3425.28,1244.99 3391.53,1246.67"/>
        <lane id="-596_1" index="1" allow="private emergency authority army vip passenger hov taxi bus coach delivery truck trailer motorcycle evehicle custom1 custom2" speed="31.29" length="34.09" shape="3425.12,1241.80 3391.37,1243.47"/>
        <lane id="-596_2" index="2" allow="private emergency authority army vip passenger hov taxi bus coach delivery truck trailer motorcycle evehicle custom1 custom2" speed="31.29" length="34.09" shape="3424.96,1238.60 3391.21,1240.28"/>
        <param key="ref" value="M6"/>
    </edge>
    <edge id="-597" from="-25456" to="-25457" priority="14" type="highway.motorway" spreadType="center">
        <lane id="-597_0" index="0" allow="private emergency authority army vip passenger hov taxi bus coach delivery truck trailer motorcycle evehicle custom1 custom2" speed="31.29" length="239.65" shape="3416.72,1254.70 3655.87,1244.60"/>
        <lane id="-597_1" index="1" allow="private emergency authority army vip passenger hov taxi bus coach delivery truck trailer motorcycle evehicle custom1 custom2" speed="31.29" length="239.65" shape="3416.86,1257.89 3656.00,1247.80"/>
        <lane id="-597_2" index="2" allow="private emergency authority army vip passenger hov taxi bus coach delivery truck trailer motorcycle evehicle custom1 custom2" speed="31.29" length="239.65" shape="3416.99,1261.09 3656.14,1250.99"/>
        <param key="ref" value="M6"/>
    </edge>
    <edge id="-598" from="-25458" to="-25456" priority="14" type="highway.motorway" spreadType="center">
        <lane id="-598_0" index="0" allow="private emergency authority army vip passenger hov taxi bus coach delivery truck trailer motorcycle evehicle custom1 custom2" speed="31.29" length="34.56" shape="3382.20,1256.13 3416.43,1254.71"/>
        <lane id="-598_1" index="1" allow="private emergency authority army vip passenger hov taxi bus coach delivery truck trailer motorcycle evehicle custom1 custom2" speed="31.29" length="34.56" shape="3382.33,1259.32 3416.56,1257.91"/>
        <lane id="-598_2" index="2" allow="private emergency authority army vip passenger hov taxi bus coach delivery truck trailer motorcycle evehicle custom1 custom2" speed="31.29" length="34.56" shape="3382.46,1262.52 3416.69,1261.10"/>
        <param key="ref" value="M6"/>
    </edge>
    <edge id="-599" from="-25459" to="-25465" priority="9" type="highway.motorway_link" spreadType="center" shape="5339.09,1236.87 5394.88,1229.50 5447.16,1216.43 5498.25,1197.65 5531.59,1181.23 5566.65,1160.87 5598.05,1138.87">
        <lane id="-599_0" index="0" allow="private emergency authority army vip passenger hov taxi bus coach delivery truck trailer motorcycle evehicle custom1 custom2" speed="22.22" length="280.64" shape="5338.99,1235.27 5394.58,1227.93 5446.69,1214.90 5497.62,1196.18 5530.83,1179.82 5565.79,1159.52 5597.04,1137.63"/>
        <lane id="-599_1" index="1" allow="private emergency authority army vip passenger hov taxi bus coach delivery truck trailer motorcycle evehicle custom1 custom2" speed="22.22" length="280.64" shape="5339.41,1238.44 5395.18,1231.07 5447.63,1217.96 5498.88,1199.12 5532.35,1182.64 5567.51,1162.22 5598.87,1140.25"/>
        <param key="ref" value="M6"/>
    </edge>
    <edge id="-603" from="-25493" to="-25494" priority="9" type="highway.motorway_link" spreadType="center">
        <lane id="-603_0" index="0" allow="private emergency authority army vip passenger hov taxi bus coach delivery truck trailer motorcycle evehicle custom1 custom2" speed="31.29" length="194.19" shape="5993.70,188.58 6037.89,-0.36"/>
        <lane id="-603_1" index="1" allow="private emergency authority army vip passenger hov taxi bus coach delivery truck trailer motorcycle evehicle custom1 custom2" speed="31.29" length="194.19" shape="5996.81,189.31 6041.01,0.36"/>
        <param key="ref" value="M6"/>
    </edge>
    <edge id="-604" from="-25495" to="-25421" priority="9" type="highway.motorway_link" spreadType="center" shape="5718.59,1037.12 5752.34,1003.26 5775.02,976.05 5802.41,941.68">
        <lane id="-604_0" index="0" allow="private emergency authority army vip passenger hov taxi bus coach delivery truck trailer motorcycle evehicle custom1 custom2" speed="22.35" length="127.18" shape="5717.55,1035.90 5751.16,1002.18 5773.78,975.04 5801.08,940.78"/>
        <lane id="-604_1" index="1" allow="private emergency authority army vip passenger hov taxi bus coach delivery truck trailer motorcycle evehicle custom1 custom2" speed="22.35" length="127.18" shape="5719.82,1038.16 5753.52,1004.34 5776.26,977.06 5803.58,942.78"/>
        <param key="ref" value="M6"/>
    </edge>
    <edge id="-605" from="-25457" to="-25454" priority="14" type="highway.motorway" spreadType="center" shape="3656.15,1247.79 3693.25,1246.20 4179.76,1220.40 4394.13,1210.18 4445.78,1207.99">
        <lane id="-605_0" index="0" allow="private emergency authority army vip passenger hov taxi bus coach delivery truck trailer motorcycle evehicle custom1 custom2" speed="31.29" length="790.64" shape="3656.16,1244.59 3693.10,1243.00 4179.60,1217.20 4393.99,1206.98 4445.50,1204.80"/>
        <lane id="-605_1" index="1" allow="private emergency authority army vip passenger hov taxi bus coach delivery truck trailer motorcycle evehicle custom1 custom2" speed="31.29" length="790.64" shape="3656.30,1247.78 3693.25,1246.20 4179.76,1220.40 4394.13,1210.18 4445.64,1208.00"/>
        <lane id="-605_2" index="2" allow="private emergency authority army vip passenger hov taxi bus coach delivery truck trailer motorcycle evehicle custom1 custom2" speed="31.29" length="790.64" shape="3656.44,1250.98 3693.40,1249.40 4179.92,1223.60 4394.27,1213.38 4445.78,1211.19"/>
        <param key="ref" value="M6"/>
    </edge>
    <edge id="-606" from="-25452" to="-25455" priority="14" type="highway.motorway" spreadType="center">
        <lane id="-606_0" index="0" allow="private emergency authority army vip passenger hov taxi bus coach delivery truck trailer motorcycle evehicle custom1 custom2" speed="31.29" length="231.36" shape="3656.31,1232.34 3425.59,1244.98"/>
        <lane id="-606_1" index="1" allow="private emergency authority army vip passenger hov taxi bus coach delivery truck trailer motorcycle evehicle custom1 custom2" speed="31.29" length="231.36" shape="3656.13,1229.15 3425.42,1241.78"/>
        <lane id="-606_2" index="2" allow="private emergency authority army vip passenger hov taxi bus coach delivery truck trailer motorcycle evehicle custom1 custom2" speed="31.29" length="231.36" shape="3655.96,1225.95 3425.24,1238.59"/>
        <param key="ref" value="M6"/>
    </edge>
    <edge id="-607" from="-25431" to="-25493" priority="9" type="highway.motorway_link" spreadType="center" shape="5929.25,544.59 5952.04,412.01 5967.01,312.60 5980.52,251.49 5995.22,189.09">
        <lane id="-607_0" index="0" allow="private emergency authority army vip passenger hov taxi bus coach delivery truck trailer motorcycle evehicle custom1 custom2" speed="31.29" length="361.75" shape="5927.69,544.19 5950.46,411.76 5965.44,312.31 5978.96,251.13 5993.63,188.87"/>
        <lane id="-607_1" index="1" allow="private emergency authority army vip passenger hov taxi bus coach delivery truck trailer motorcycle evehicle custom1 custom2" speed="31.29" length="361.75" shape="5930.85,544.74 5953.62,412.26 5968.58,312.89 5982.08,251.85 5996.74,189.60"/>
        <param key="ref" value="M6"/>
    </edge>
    <edge id="-608#0" from="-25361" to="-25510" priority="14" type="highway.motorway" spreadType="center" shape="1574.23,1340.11 1089.50,1393.21 982.74,1411.15 885.13,1426.51 796.79,1439.49 708.50,1455.48 543.82,1484.44 356.14,1521.16">
        <lane id="-608#0_0" index="0" allow="private emergency authority army vip passenger hov taxi bus coach delivery truck trailer motorcycle evehicle custom1 custom2" speed="31.29" length="1134.25" shape="1515.88,1349.72 1089.94,1396.38 983.25,1414.31 885.61,1429.67 797.31,1442.65 709.06,1458.63 544.40,1487.59 417.88,1512.34"/>
        <lane id="-608#0_1" index="1" allow="private emergency authority army vip passenger hov taxi bus coach delivery truck trailer motorcycle evehicle custom1 custom2" speed="31.29" length="1134.25" shape="1515.53,1346.54 1089.50,1393.21 982.74,1411.15 885.13,1426.51 796.79,1439.49 708.50,1455.48 543.82,1484.44 417.26,1509.20"/>
        <lane id="-608#0_2" index="2" allow="private emergency authority army vip passenger hov taxi bus coach delivery truck trailer motorcycle evehicle custom1 custom2" speed="31.29" length="1134.25" shape="1515.19,1343.36 1089.06,1390.04 982.23,1407.99 884.65,1423.35 796.27,1436.33 707.94,1452.33 543.24,1481.29 416.65,1506.06"/>
        <param key="ref" value="M6"/>
    </edge>
    <edge id="-608#1" from="-25510" to="-25513" priority="14" type="highway.motorway" spreadType="center" shape="356.14,1521.16 253.63,1542.76 103.66,1577.19 0.00,1601.68">
        <lane id="-608#1_0" index="0" allow="private emergency authority army vip passenger hov taxi bus coach delivery truck trailer motorcycle evehicle custom1 custom2" speed="31.29" length="414.25" acceleration="1" shape="385.65,1518.21 254.32,1545.89 104.39,1580.31 0.74,1604.79"/>
        <lane id="-608#1_1" index="1" allow="private emergency authority army vip passenger hov taxi bus coach delivery truck trailer motorcycle evehicle custom1 custom2" speed="31.29" length="414.25" acceleration="1" shape="384.99,1515.08 253.63,1542.76 103.66,1577.19 -0.00,1601.68"/>
        <lane id="-608#1_2" index="2" allow="private emergency authority army vip passenger hov taxi bus coach delivery truck trailer motorcycle evehicle custom1 custom2" speed="31.29" length="414.25" shape="384.33,1511.95 252.94,1539.63 102.93,1574.07 -0.74,1598.57"/>
        <param key="ref" value="M6"/>
    </edge>
    <edge id="-609" from="-25389" to="-25458" priority="14" type="highway.motorway" spreadType="center" shape="1544.03,1359.49 1630.94,1351.10 1767.25,1340.19 1906.80,1331.19 2029.84,1323.93 2223.82,1314.59 2607.57,1296.05 3382.18,1259.33">
        <lane id="-609_0" index="0" allow="private emergency authority army vip passenger hov taxi bus coach delivery truck trailer motorcycle evehicle custom1 custom2" speed="31.29" length="1914.45" acceleration="1" shape="1504.40,1360.10 1630.66,1347.91 1767.02,1337.00 1906.60,1328.00 2029.67,1320.73 2223.67,1311.39 2607.42,1292.85 3381.88,1256.14"/>
        <lane id="-609_1" index="1" allow="private emergency authority army vip passenger hov taxi bus coach delivery truck trailer motorcycle evehicle custom1 custom2" speed="31.29" length="1914.45" acceleration="1" shape="1504.71,1363.29 1630.94,1351.10 1767.25,1340.19 1906.80,1331.19 2029.84,1323.93 2223.82,1314.59 2607.57,1296.05 3382.03,1259.34"/>
        <lane id="-609_2" index="2" allow="private emergency authority army vip passenger hov taxi bus coach delivery truck trailer motorcycle evehicle custom1 custom2" speed="31.29" length="1914.45" shape="1505.01,1366.47 1631.22,1354.29 1767.48,1343.38 1907.00,1334.38 2030.01,1327.13 2223.97,1317.79 2607.72,1299.25 3382.18,1262.53"/>
        <param key="ref" value="M6"/>
    </edge>
    <edge id="-610" from="-25520" to="-25535" priority="14" type="highway.motorway" spreadType="center" shape="6443.67,748.03 6336.16,815.28 6264.83,863.36 6218.18,895.51 6140.32,949.45 6058.38,1001.49 5986.91,1040.46 5929.20,1067.56 5873.60,1090.28 5815.67,1113.23 5784.03,1124.16 5746.73,1136.38 5685.85,1154.31 5615.06,1168.89 5504.32,1181.89 5409.65,1183.80">
        <lane id="-610_0" index="0" allow="private emergency authority army vip passenger hov taxi bus coach delivery truck trailer motorcycle evehicle custom1 custom2" speed="31.29" length="1143.47" shape="6444.52,749.39 6337.03,816.62 6265.73,864.68 6219.09,896.83 6141.20,950.78 6059.19,1002.87 5987.63,1041.89 5929.84,1069.03 5874.20,1091.76 5816.23,1114.73 5784.54,1125.68 5747.21,1137.91 5686.24,1155.86 5615.32,1170.47 5504.43,1183.49 5409.68,1185.40"/>
        <lane id="-610_1" index="1" allow="private emergency authority army vip passenger hov taxi bus coach delivery truck trailer motorcycle evehicle custom1 custom2" speed="31.29" length="1143.47" shape="6442.82,746.67 6335.29,813.94 6263.93,862.04 6217.27,894.19 6139.44,948.12 6057.57,1000.11 5986.19,1039.03 5928.56,1066.09 5873.00,1088.80 5815.11,1111.73 5783.52,1122.64 5746.25,1134.85 5685.46,1152.76 5614.80,1167.31 5504.21,1180.29 5409.62,1182.20"/>
        <param key="ref" value="M6"/>
    </edge>
    <edge id="-611" from="-25465" to="-25495" priority="9" type="highway.motorway_link" spreadType="center" shape="5598.05,1138.87 5635.06,1110.81 5663.62,1086.03 5693.48,1058.44 5718.59,1037.12">