<additional>
    <e1Detector id="E0_0_0m" lane="E0_0" pos="0" period="300" file="e1/e1detectors_test_455.xml" />
    <e1Detector id="E0_1_0m" lane="E0_1" pos="0" period="300" file="e1/e1detectors_test_455.xml" />
    <e1Detector id="E0_0_100m" lane="E0_0" pos="100" period="300" file="e1/e1detectors_test_455.xml" />
    <e1Detector id="E0_1_100m" lane="E0_1" pos="100" period="300" file="e1/e1detectors_test_455.xml" />
    <e1Detector id="E0_0_200m" lane="E0_0" pos="200" period="300" file="e1/e1detectors_test_455.xml" />
    <e1Detector id="E0_1_200m" lane="E0_1" pos="200" period="300" file="e1/e1detectors_test_455.xml" />
    <e1Detector id="E0_0_300m" lane="E0_0" pos="300" period="300" file="e1/e1detectors_test_455.xml" />
    <e1Detector id="E0_1_300m" lane="E0_1" pos="300" period="300" file="e1/e1detectors_test_455.xml" />
    <e1Detector id="E0_0_400m" lane="E0_0" pos="400" period="300" file="e1/e1detectors_test_455.xml" />
    <e1Detector id="E0_1_400m" lane="E0_1" pos="400" period="300" file="e1/e1detectors_test_455.xml" />
    <e1Detector id="E0_0_500m" lane="E0_0" pos="500" period="300" file="e1/e1detectors_test_455.xml" />
    <e1Detector id="E0_1_500m" lane="E0_1" pos="500" period="300" file="e1/e1detectors_test_455.xml" />
    <e1Detector id="E0_0_600m" lane="E0_0" pos="600" period="300" file="e1/e1detectors_test_455.xml" />
    <e1Detector id="E0_1_600m" lane="E0_1" pos="600" period="300" file="e1/e1detectors_test_455.xml" />
    <e1Detector id="E0_0_700m" lane="E0_0" pos="700" period="300" file="e1/e1detectors_test_455.xml" />
    <e1Detector id="E0_1_700m" lane="E0_1" pos="700" period="300" file="e1/e1detectors_test_455.xml" />
    <e1Detector id="E0_0_800m" lane="E0_0" pos="800" period="300" file="e1/e1detectors_test_455.xml" />
    <e1Detector id="E0_1_800m" lane="E0_1" pos="800" period="300" file="e1/e1detectors_test_455.xml" />
    <e1Detector id="E0_0_900m" lane="E0_0" pos="900" period="300" file="e1/e1detectors_test_455.xml" />
    <e1Detector id="E0_1_900m" lane="E0_1" pos="900" period="300" file="e1/e1detectors_test_455.xml" />
    <e1Detector id="E0_0_1000m" lane="E0_0" pos="1000" period="300" file="e1/e1detectors_test_455.xml" />
    <e1Detector id="E0_1_1000m" lane="E0_1" pos="1000" period="300" file="e1/e1detectors_test_455.xml" />
    <e1Detector id="E0_0_1100m" lane="E0_0" pos="1100" period="300" file="e1/e1detectors_test_455.xml" />
    <e1Detector id="E0_1_1100m" lane="E0_1" pos="1100" period="300" file="e1/e1detectors_test_455.xml" />
    <e1Detector id="E0_0_1200m" lane="E0_0" pos="1200" period="300" file="e1/e1detectors_test_455.xml" />
    <e1Detector id="E0_1_1200m" lane="E0_1" pos="1200" period="300" file="e1/e1detectors_test_455.xml" />
    <e1Detector id="E0_0_1300m" lane="E0_0" pos="1300" period="300" file="e1/e1detectors_test_455.xml" />
    <e1Detector id="E0_1_1300m" lane="E0_1" pos="1300" period="300" file="e1/e1detectors_test_455.xml" />
    <e1Detector id="E0_0_1400m" lane="E0_0" pos="1400" period="300" file="e1/e1detectors_test_455.xml" />
    <e1Detector id="E0_1_1400m" lane="E0_1" pos="1400" period="300" file="e1/e1detectors_test_455.xml" />
    <e1Detector id="E0_0_1500m" lane="E0_0" pos="1500" period="300" file="e1/e1detectors_test_455.xml" />
    <e1Detector id="E0_1_1500m" lane="E0_1" pos="1500" period="300" file="e1/e1detectors_test_455.xml" />
    <e1Detector id="E0_0_1600m" lane="E0_0" pos="1600" period="300" file="e1/e1detectors_test_455.xml" />
    <e1Detector id="E0_1_1600m" lane="E0_1" pos="1600" period="300" file="e1/e1detectors_test_455.xml" />
    <e1Detector id="E0_0_1700m" lane="E0_0" pos="1700" period="300" file="e1/e1detectors_test_455.xml" />
    <e1Detector id="E0_1_1700m" lane="E0_1" pos="1700" period="300" file="e1/e1detectors_test_455.xml" />
    <e1Detector id="E0_0_1800m" lane="E0_0" pos="1800" period="300" file="e1/e1detectors_test_455.xml" />
    <e1Detector id="E0_1_1800m" lane="E0_1" pos="1800" period="300" file="e1/e1detectors_test_455.xml" />
    <e1Detector id="E0_0_1900m" lane="E0_0" pos="1900" period="300" file="e1/e1detectors_test_455.xml" />
    <e1Detector id="E0_1_1900m" lane="E0_1" pos="1900" period="300" file="e1/e1detectors_test_455.xml" />
    <e1Detector id="E0_0_2000m" lane="E0_0" pos="2000" period="300" file="e1/e1detectors_test_455.xml" />
    <e1Detector id="E0_1_2000m" lane="E0_1" pos="2000" period="300" file="e1/e1detectors_test_455.xml" />
    <e1Detector id="E0_0_2100m" lane="E0_0" pos="2100" period="300" file="e1/e1detectors_test_455.xml" />
    <e1Detector id="E0_1_2100m" lane="E0_1" pos="2100" period="300" file="e1/e1detectors_test_455.xml" />
    <e1Detector id="E0_0_2200m" lane="E0_0" pos="2200" period="300" file="e1/e1detectors_test_455.xml" />
    <e1Detector id="E0_1_2200m" lane="E0_1" pos="2200" period="300" file="e1/e1detectors_test_455.xml" />
    <e1Detector id="E0_0_2300m" lane="E0_0" pos="2300" period="300" file="e1/e1detectors_test_455.xml" />
    <e1Detector id="E0_1_2300m" lane="E0_1" pos="2300" period="300" file="e1/e1detectors_test_455.xml" />
    <e1Detector id="E0_0_2400m" lane="E0_0" pos="2400" period="300" file="e1/e1detectors_test_455.xml" />
    <e1Detector id="E0_1_2400m" lane="E0_1" pos="2400" period="300" file="e1/e1detectors_test_455.xml" />
    <e1Detector id="E0_0_2500m" lane="E0_0" pos="2500" period="300" file="e1/e1detectors_test_455.xml" />
    <e1Detector id="E0_1_2500m" lane="E0_1" pos="2500" period="300" file="e1/e1detectors_test_455.xml" />
    <e1Detector id="E0_0_2600m" lane="E0_0" pos="2600" period="300" file="e1/e1detectors_test_455.xml" />
    <e1Detector id="E0_1_2600m" lane="E0_1" pos="2600" period="300" file="e1/e1detectors_test_455.xml" />
    <e1Detector id="E0_0_2700m" lane="E0_0" pos="2700" period="300" file="e1/e1detectors_test_455.xml" />
    <e1Detector id="E0_1_2700m" lane="E0_1" pos="2700" period="300" file="e1/e1detectors_test_455.xml" />
    <e1Detector id="E0_0_2800m" lane="E0_0" pos="2800" period="300" file="e1/e1detectors_test_455.xml" />
    <e1Detector id="E0_1_2800m" lane="E0_1" pos="2800" period="300" file="e1/e1detectors_test_455.xml" />
    <e1Detector id="E0_0_2900m" lane="E0_0" pos="2900" period="300" file="e1/e1detectors_test_455.xml" />
    <e1Detector id="E0_1_2900m" lane="E0_1" pos="2900" period="300" file="e1/e1detectors_test_455.xml" />
    <e1Detector id="E0_0_3000m" lane="E0_0" pos="3000" period="300" file="e1/e1detectors_test_455.xml" />
    <e1Detector id="E0_1_3000m" lane="E0_1" pos="3000" period="300" file="e1/e1detectors_test_455.xml" />
    <e1Detector id="E0_0_3100m" lane="E0_0" pos="3100" period="300" file="e1/e1detectors_test_455.xml" />
    <e1Detector id="E0_1_3100m" lane="E0_1" pos="3100" period="300" file="e1/e1detectors_test_455.xml" />
    <e1Detector id="E0_0_3200m" lane="E0_0" pos="3200" period="300" file="e1/e1detectors_test_455.xml" />
    <e1Detector id="E0_1_3200m" lane="E0_1" pos="3200" period="300" file="e1/e1detectors_test_455.xml" />
    <e1Detector id="E0_0_3300m" lane="E0_0" pos="3300" period="300" file="e1/e1detectors_test_455.xml" />
    <e1Detector id="E0_1_3300m" lane="E0_1" pos="3300" period="300" file="e1/e1detectors_test_455.xml" />
    <e1Detector id="E0_0_3400m" lane="E0_0" pos="3400" period="300" file="e1/e1detectors_test_455.xml" />
    <e1Detector id="E0_1_3400m" lane="E0_1" pos="3400" period="300" file="e1/e1detectors_test_455.xml" />
    <e1Detector id="E0_0_3500m" lane="E0_0" pos="3500" period="300" file="e1/e1detectors_test_455.xml" />
    <e1Detector id="E0_1_3500m" lane="E0_1" pos="3500" period="300" file="e1/e1detectors_test_455.xml" />
    <e1Detector id="E0_0_3600m" lane="E0_0" pos="3600" period="300" file="e1/e1detectors_test_455.xml" />
    <e1Detector id="E0_1_3600m" lane="E0_1" pos="3600" period="300" file="e1/e1detectors_test_455.xml" />
    <e1Detector id="E0_0_3700m" lane="E0_0" pos="3700" period="300" file="e1/e1detectors_test_455.xml" />
    <e1Detector id="E0_1_3700m" lane="E0_1" pos="3700" period="300" file="e1/e1detectors_test_455.xml" />
    <e1Detector id="E0_0_3800m" lane="E0_0" pos="3800" period="300" file="e1/e1detectors_test_455.xml" />
    <e1Detector id="E0_1_3800m" lane="E0_1" pos="3800" period="300" file="e1/e1detectors_test_455.xml" />
    <e1Detector id="E0_0_3900m" lane="E0_0" pos="3900" period="300" file="e1/e1detectors_test_455.xml" />
    <e1Detector id="E0_1_3900m" lane="E0_1" pos="3900" period="300" file="e1/e1detectors_test_455.xml" />
    <e1Detector id="E0_0_4000m" lane="E0_0" pos="4000" period="300" file="e1/e1detectors_test_455.xml" />
    <e1Detector id="E0_1_4000m" lane="E0_1" pos="4000" period="300" file="e1/e1detectors_test_455.xml" />
    <e1Detector id="E0_0_4100m" lane="E0_0" pos="4100" period="300" file="e1/e1detectors_test_455.xml" />
    <e1Detector id="E0_1_4100m" lane="E0_1" pos="4100" period="300" file="e1/e1detectors_test_455.xml" />
    <e1Detector id="E0_0_4200m" lane="E0_0" pos="4200" period="300" file="e1/e1detectors_test_455.xml" />
    <e1Detector id="E0_1_4200m" lane="E0_1" pos="4200" period="300" file="e1/e1detectors_test_455.xml" />
    <e1Detector id="E0_0_4300m" lane="E0_0" pos="4300" period="300" file="e1/e1detectors_test_455.xml" />
    <e1Detector id="E0_1_4300m" lane="E0_1" pos="4300" period="300" file="e1/e1detectors_test_455.xml" />
    <e1Detector id="E0_0_4400m" lane="E0_0" pos="4400" period="300" file="e1/e1detectors_test_455.xml" />
    <e1Detector id="E0_1_4400m" lane="E0_1" pos="4400" period="300" file="e1/e1detectors_test_455.xml" />
    <e1Detector id="E0_0_4500m" lane="E0_0" pos="4500" period="300" file="e1/e1detectors_test_455.xml" />
    <e1Detector id="E0_1_4500m" lane="E0_1" pos="4500" period="300" file="e1/e1detectors_test_455.xml" />
    <e1Detector id="E0_0_4600m" lane="E0_0" pos="4600" period="300" file="e1/e1detectors_test_455.xml" />
    <e1Detector id="E0_1_4600m" lane="E0_1" pos="4600" period="300" file="e1/e1detectors_test_455.xml" />
    <e1Detector id="E0_0_4700m" lane="E0_0" pos="4700" period="300" file="e1/e1detectors_test_455.xml" />
    <e1Detector id="E0_1_4700m" lane="E0_1" pos="4700" period="300" file="e1/e1detectors_test_455.xml" />
    <e1Detector id="E0_0_4800m" lane="E0_0" pos="4800" period="300" file="e1/e1detectors_test_455.xml" />
    <e1Detector id="E0_1_4800m" lane="E0_1" pos="4800" period="300" file="e1/e1detectors_test_455.xml" />
    <e1Detector id="E0_0_4900m" lane="E0_0" pos="4900" period="300" file="e1/e1detectors_test_455.xml" />
    <e1Detector id="E0_1_4900m" lane="E0_1" pos="4900" period="300" file="e1/e1detectors_test_455.xml" />
    <e1Detector id="E0_0_5000m" lane="E0_0" pos="5000" period="300" file="e1/e1detectors_test_455.xml" />
    <e1Detector id="E0_1_5000m" lane="E0_1" pos="5000" period="300" file="e1/e1detectors_test_455.xml" />
</additional>