<?xml version="1.0" encoding="UTF-8"?>

<!-- generated on 2024-01-29 04:33:12 by Eclipse SUMO netedit Version 1.18.0
<configuration xmlns:xsi="http://www.w3.org/2001/XMLSchema-instance" xsi:noNamespaceSchemaLocation="http://sumo.dlr.de/xsd/neteditConfiguration.xsd">

    <input>
        <sumo-net-file value="/home/don/src/projects/sumo-paper-grid/sumo-safety-traci-project/scenario6/safety.net.xml"/>
    </input>

    <output>
        <output-file value="/home/don/src/projects/sumo-paper-grid/sumo-safety-traci-project/scenario6/safety.net.xml"/>
    </output>

    <processing>
        <geometry.min-radius.fix.railways value="false"/>
        <geometry.max-grade.fix value="false"/>
        <offset.disable-normalization value="true"/>
        <lefthand value="1"/>
    </processing>

    <junctions>
        <no-turnarounds value="true"/>
        <junctions.corner-detail value="5"/>
        <junctions.limit-turn-speed value="5.50"/>
        <rectangular-lane-cut value="0"/>
    </junctions>

    <pedestrian>
        <walkingareas value="0"/>
    </pedestrian>

</configuration>
-->

<net version="1.16" junctionCornerDetail="5" lefthand="true" limitTurnSpeed="5.50" xmlns:xsi="http://www.w3.org/2001/XMLSchema-instance" xsi:noNamespaceSchemaLocation="http://sumo.dlr.de/xsd/net_file.xsd">

    <location netOffset="0.00,0.00" convBoundary="0.00,50.00,2100.00,200.00" origBoundary="-10000000000.00,-10000000000.00,10000000000.00,10000000000.00" projParameter="!"/>

    <edge id=":J1_0" function="internal">
        <lane id=":J1_0_0" index="0" allow="rail" speed="13.89" length="9.40" shape="198.40,95.30 198.40,104.70">
            <neigh lane=":J1_2_0"/>
        </lane>
    </edge>
    <edge id=":J1_1" function="internal">
        <lane id=":J1_1_0" index="0" disallow="rail" speed="13.89" length="9.40" shape="204.70,98.40 195.30,98.40">
            <neigh lane=":J1_3_0"/>
        </lane>
    </edge>
    <edge id=":J1_2" function="internal">
        <lane id=":J1_2_0" index="0" allow="rail" speed="13.89" length="9.40" shape="201.60,104.70 201.60,95.30">
            <neigh lane=":J1_0_0"/>
        </lane>
    </edge>
    <edge id=":J1_3" function="internal">
        <lane id=":J1_3_0" index="0" disallow="rail" speed="13.89" length="9.40" shape="195.30,101.60 204.70,101.60">
            <neigh lane=":J1_1_0"/>
        </lane>
    </edge>
    <edge id=":J2_0" function="internal">
        <lane id=":J2_0_0" index="0" disallow="rail" speed="13.89" length="0.10" shape="250.00,98.40 250.00,98.40"/>
    </edge>
    <edge id=":J2_1" function="internal">
        <lane id=":J2_1_0" index="0" disallow="rail" speed="13.89" length="0.10" shape="250.00,101.60 250.00,101.60"/>
    </edge>
    <edge id=":J7_0" function="internal">
        <lane id=":J7_0_0" index="0" speed="13.89" length="0.10" shape="2000.00,201.60 2000.00,201.60"/>
    </edge>
    <edge id=":J8_0" function="internal">
        <lane id=":J8_0_0" index="0" speed="13.89" length="0.10" shape="2050.00,201.60 2050.00,201.60"/>
    </edge>

    <edge id="-E0" from="J1" to="J0" priority="-1">
        <lane id="-E0_0" index="0" disallow="rail" speed="13.89" length="195.30" shape="195.30,98.40 0.00,98.40">
            <neigh lane="E0_0"/>
        </lane>
    </edge>
    <edge id="-E1" from="J2" to="J1" priority="-1">
        <lane id="-E1_0" index="0" disallow="rail" speed="13.89" length="45.30" shape="250.00,98.40 204.70,98.40">
            <neigh lane="E1_0"/>
        </lane>
    </edge>
    <edge id="-E2" from="J1" to="J3" priority="-1">
        <lane id="-E2_0" index="0" allow="rail" speed="13.89" length="45.30" shape="198.40,104.70 198.40,150.00">
            <neigh lane="E2_0"/>
        </lane>
    </edge>
    <edge id="-E3" from="J4" to="J1" priority="-1">
        <lane id="-E3_0" index="0" allow="rail" speed="13.89" length="45.30" shape="198.40,50.00 198.40,95.30">
            <neigh lane="E3_0"/>
        </lane>
    </edge>
    <edge id="-E4" from="J5" to="J2" priority="-1">
        <lane id="-E4_0" index="0" speed="13.89" length="50.00" shape="300.00,98.40 250.00,98.40"/>
    </edge>
    <edge id="E0" from="J0" to="J1" priority="-1">
        <lane id="E0_0" index="0" disallow="rail" speed="13.89" length="195.30" shape="0.00,101.60 195.30,101.60">
            <neigh lane="-E0_0"/>
        </lane>
    </edge>
    <edge id="E1" from="J1" to="J2" priority="-1">
        <lane id="E1_0" index="0" disallow="rail" speed="13.89" length="45.30" shape="204.70,101.60 250.00,101.60">
            <neigh lane="-E1_0"/>
        </lane>
    </edge>
    <edge id="E2" from="J3" to="J1" priority="-1">
        <lane id="E2_0" index="0" allow="rail" speed="13.89" length="45.30" shape="201.60,150.00 201.60,104.70">
            <neigh lane="-E2_0"/>
        </lane>
    </edge>
    <edge id="E3" from="J1" to="J4" priority="-1">
        <lane id="E3_0" index="0" allow="rail" speed="13.89" length="45.30" shape="201.60,95.30 201.60,50.00">
            <neigh lane="-E3_0"/>
        </lane>
    </edge>
    <edge id="E4" from="J2" to="J5" priority="-1">
        <lane id="E4_0" index="0" speed="13.89" length="50.00" shape="250.00,101.60 300.00,101.60"/>
    </edge>
    <edge id="E5" from="J6" to="J7" priority="-1">
        <lane id="E5_0" index="0" speed="13.89" length="2000.00" shape="0.00,201.60 2000.00,201.60"/>
    </edge>
    <edge id="E6" from="J7" to="J8" priority="-1">
        <lane id="E6_0" index="0" speed="13.89" length="50.00" shape="2000.00,201.60 2050.00,201.60"/>
    </edge>
    <edge id="E7" from="J8" to="J9" priority="-1">
        <lane id="E7_0" index="0" speed="13.89" length="50.00" shape="2050.00,201.60 2100.00,201.60"/>
    </edge>

    <tlLogic id="J1" type="static" programID="0" offset="0">
        <phase duration="3600" state="GrGr"/>
        <phase duration="3600" state="rGrG"/>
    </tlLogic>

    <junction id="J0" type="dead_end" x="0.00" y="100.00" incLanes="-E0_0" intLanes="" shape="0.00,100.00 0.00,96.80 0.00,100.00"/>
    <junction id="J1" type="traffic_light" x="200.00" y="100.00" incLanes="-E3_0 -E1_0 E2_0 E0_0" intLanes=":J1_0_0 :J1_1_0 :J1_2_0 :J1_3_0" shape="196.80,95.30 203.20,95.30 203.37,96.13 203.57,96.43 203.87,96.63 204.24,96.76 204.70,96.80 204.70,103.20 203.87,103.37 203.57,103.57 203.37,103.87 203.24,104.24 203.20,104.70 196.80,104.70 196.63,103.87 196.43,103.57 196.13,103.37 195.76,103.24 195.30,103.20 195.30,96.80 196.13,96.63 196.43,96.43 196.63,96.13 196.76,95.76">
        <request index="0" response="0000" foes="1010" cont="0"/>
        <request index="1" response="0101" foes="0101" cont="0"/>
        <request index="2" response="0000" foes="1010" cont="0"/>
        <request index="3" response="0101" foes="0101" cont="0"/>
    </junction>
    <junction id="J2" type="priority" x="250.00" y="100.00" incLanes="-E4_0 E1_0" intLanes=":J2_0_0 :J2_1_0" shape="250.00,96.80 250.00,103.20 250.00,96.80">
        <request index="0" response="00" foes="00" cont="0"/>
        <request index="1" response="00" foes="00" cont="0"/>
    </junction>
    <junction id="J3" type="dead_end" x="200.00" y="150.00" incLanes="-E2_0" intLanes="" shape="200.00,150.00 196.80,150.00 200.00,150.00"/>
    <junction id="J4" type="dead_end" x="200.00" y="50.00" incLanes="E3_0" intLanes="" shape="200.00,50.00 203.20,50.00 200.00,50.00"/>
    <junction id="J5" type="dead_end" x="300.00" y="100.00" incLanes="E4_0" intLanes="" shape="300.00,100.00 300.00,103.20 300.00,100.00"/>
    <junction id="J6" type="dead_end" x="0.00" y="200.00" incLanes="" intLanes="" shape="0.00,200.00 0.00,203.20"/>
    <junction id="J7" type="unregulated" x="2000.00" y="200.00" incLanes="E5_0" intLanes=":J7_0_0" shape="2000.00,200.00 2000.00,203.20 2000.00,200.00"/>
    <junction id="J8" type="unregulated" x="2050.00" y="200.00" incLanes="E6_0" intLanes=":J8_0_0" shape="2050.00,200.00 2050.00,203.20 2050.00,200.00"/>
    <junction id="J9" type="dead_end" x="2100.00" y="200.00" incLanes="E7_0" intLanes="" shape="2100.00,203.20 2100.00,200.00"/>

    <connection from="-E1" to="-E0" fromLane="0" toLane="0" via=":J1_1_0" tl="J1" linkIndex="1" dir="s" state="o"/>
    <connection from="-E3" to="-E2" fromLane="0" toLane="0" via=":J1_0_0" tl="J1" linkIndex="0" dir="s" state="O"/>
    <connection from="-E4" to="-E1" fromLane="0" toLane="0" via=":J2_0_0" dir="s" state="M"/>
    <connection from="E0" to="E1" fromLane="0" toLane="0" via=":J1_3_0" tl="J1" linkIndex="3" dir="s" state="o"/>
    <connection from="E1" to="E4" fromLane="0" toLane="0" via=":J2_1_0" dir="s" state="M"/>
    <connection from="E2" to="E3" fromLane="0" toLane="0" via=":J1_2_0" tl="J1" linkIndex="2" dir="s" state="O"/>
    <connection from="E5" to="E6" fromLane="0" toLane="0" via=":J7_0_0" dir="s" state="M"/>
    <connection from="E6" to="E7" fromLane="0" toLane="0" via=":J8_0_0" dir="s" state="M"/>

    <connection from=":J1_0" to="-E2" fromLane="0" toLane="0" dir="s" state="M"/>
    <connection from=":J1_1" to="-E0" fromLane="0" toLane="0" dir="s" state="M"/>
    <connection from=":J1_2" to="E3" fromLane="0" toLane="0" dir="s" state="M"/>
    <connection from=":J1_3" to="E1" fromLane="0" toLane="0" dir="s" state="M"/>
    <connection from=":J2_0" to="-E1" fromLane="0" toLane="0" dir="s" state="M"/>
    <connection from=":J2_1" to="E4" fromLane="0" toLane="0" dir="s" state="M"/>
    <connection from=":J7_0" to="E6" fromLane="0" toLane="0" dir="s" state="M"/>
    <connection from=":J8_0" to="E7" fromLane="0" toLane="0" dir="s" state="M"/>

</net>
