<additional>
    <e1Detector id="E0_0_0m" lane="E0_0" pos="0" file="NUL"/>
</additional>