<additional>
    <laneAreaDetector id="E0_0_0m" lane="E0_0" pos="0" endPos="100" file="NUL"/>
</additional>