<additional>
    <e1Detector id="E0_0_0m" lane="E0_0" pos="0" file="NUL"/>
    <e1Detector id="E0_1_0m" lane="E0_1" pos="0" file="NUL"/>
    <e1Detector id="E1_0_0m" lane="E1_0" pos="0" file="NUL"/>
    <e1Detector id="E1_1_0m" lane="E1_1" pos="0" file="NUL"/>
    <e1Detector id="E2_0_0m" lane="E2_0" pos="0" file="NUL"/>
    <e1Detector id="E2_1_0m" lane="E2_1" pos="0" file="NUL"/>
    <e1Detector id="E0_0_100m" lane="E0_0" pos="100" file="NUL"/>
    <e1Detector id="E0_1_100m" lane="E0_1" pos="100" file="NUL"/>
    <e1Detector id="E1_0_100m" lane="E1_0" pos="100" file="NUL"/>
    <e1Detector id="E1_1_100m" lane="E1_1" pos="100" file="NUL"/>
    <e1Detector id="E2_0_100m" lane="E2_0" pos="100" file="NUL"/>
    <e1Detector id="E2_1_100m" lane="E2_1" pos="100" file="NUL"/>
    <e1Detector id="E0_0_200m" lane="E0_0" pos="200" file="NUL"/>
    <e1Detector id="E0_1_200m" lane="E0_1" pos="200" file="NUL"/>
    <e1Detector id="E1_0_200m" lane="E1_0" pos="200" file="NUL"/>
    <e1Detector id="E1_1_200m" lane="E1_1" pos="200" file="NUL"/>
    <e1Detector id="E2_0_200m" lane="E2_0" pos="200" file="NUL"/>
    <e1Detector id="E2_1_200m" lane="E2_1" pos="200" file="NUL"/>
    <e1Detector id="E0_0_300m" lane="E0_0" pos="300" file="NUL"/>
    <e1Detector id="E0_1_300m" lane="E0_1" pos="300" file="NUL"/>
    <e1Detector id="E1_0_300m" lane="E1_0" pos="300" file="NUL"/>
    <e1Detector id="E1_1_300m" lane="E1_1" pos="300" file="NUL"/>
    <e1Detector id="E2_0_300m" lane="E2_0" pos="300" file="NUL"/>
    <e1Detector id="E2_1_300m" lane="E2_1" pos="300" file="NUL"/>
    <e1Detector id="E0_0_400m" lane="E0_0" pos="400" file="NUL"/>
    <e1Detector id="E0_1_400m" lane="E0_1" pos="400" file="NUL"/>
    <e1Detector id="E1_0_400m" lane="E1_0" pos="400" file="NUL"/>
    <e1Detector id="E1_1_400m" lane="E1_1" pos="400" file="NUL"/>
    <e1Detector id="E2_0_400m" lane="E2_0" pos="400" file="NUL"/>
    <e1Detector id="E2_1_400m" lane="E2_1" pos="400" file="NUL"/>
    <e1Detector id="E0_0_500m" lane="E0_0" pos="500" file="NUL"/>
    <e1Detector id="E0_1_500m" lane="E0_1" pos="500" file="NUL"/>
    <e1Detector id="E1_0_500m" lane="E1_0" pos="500" file="NUL"/>
    <e1Detector id="E1_1_500m" lane="E1_1" pos="500" file="NUL"/>
    <e1Detector id="E2_0_500m" lane="E2_0" pos="500" file="NUL"/>
    <e1Detector id="E2_1_500m" lane="E2_1" pos="500" file="NUL"/>
    <e1Detector id="E0_0_600m" lane="E0_0" pos="600" file="NUL"/>
    <e1Detector id="E0_1_600m" lane="E0_1" pos="600" file="NUL"/>
    <e1Detector id="E1_0_600m" lane="E1_0" pos="600" file="NUL"/>
    <e1Detector id="E1_1_600m" lane="E1_1" pos="600" file="NUL"/>
    <e1Detector id="E2_0_600m" lane="E2_0" pos="600" file="NUL"/>
    <e1Detector id="E2_1_600m" lane="E2_1" pos="600" file="NUL"/>
    <e1Detector id="E0_0_700m" lane="E0_0" pos="700" file="NUL"/>
    <e1Detector id="E0_1_700m" lane="E0_1" pos="700" file="NUL"/>
    <e1Detector id="E1_0_700m" lane="E1_0" pos="700" file="NUL"/>
    <e1Detector id="E1_1_700m" lane="E1_1" pos="700" file="NUL"/>
    <e1Detector id="E2_0_700m" lane="E2_0" pos="700" file="NUL"/>
    <e1Detector id="E2_1_700m" lane="E2_1" pos="700" file="NUL"/>
    <e1Detector id="E0_0_800m" lane="E0_0" pos="800" file="NUL"/>
    <e1Detector id="E0_1_800m" lane="E0_1" pos="800" file="NUL"/>
    <e1Detector id="E1_0_800m" lane="E1_0" pos="800" file="NUL"/>
    <e1Detector id="E1_1_800m" lane="E1_1" pos="800" file="NUL"/>
    <e1Detector id="E2_0_800m" lane="E2_0" pos="800" file="NUL"/>
    <e1Detector id="E2_1_800m" lane="E2_1" pos="800" file="NUL"/>
    <e1Detector id="E0_0_900m" lane="E0_0" pos="900" file="NUL"/>
    <e1Detector id="E0_1_900m" lane="E0_1" pos="900" file="NUL"/>
    <e1Detector id="E1_0_900m" lane="E1_0" pos="900" file="NUL"/>
    <e1Detector id="E1_1_900m" lane="E1_1" pos="900" file="NUL"/>
    <e1Detector id="E2_0_900m" lane="E2_0" pos="900" file="NUL"/>
    <e1Detector id="E2_1_900m" lane="E2_1" pos="900" file="NUL"/>
    <e1Detector id="E0_0_1000m" lane="E0_0" pos="1000" file="NUL"/>
    <e1Detector id="E0_1_1000m" lane="E0_1" pos="1000" file="NUL"/>
    <e1Detector id="E1_0_1000m" lane="E1_0" pos="1000" file="NUL"/>
    <e1Detector id="E1_1_1000m" lane="E1_1" pos="1000" file="NUL"/>
    <e1Detector id="E2_0_1000m" lane="E2_0" pos="1000" file="NUL"/>
    <e1Detector id="E2_1_1000m" lane="E2_1" pos="1000" file="NUL"/>
    <e1Detector id="E0_0_1100m" lane="E0_0" pos="1100" file="NUL"/>
    <e1Detector id="E0_1_1100m" lane="E0_1" pos="1100" file="NUL"/>
    <e1Detector id="E1_0_1100m" lane="E1_0" pos="1100" file="NUL"/>
    <e1Detector id="E1_1_1100m" lane="E1_1" pos="1100" file="NUL"/>
    <e1Detector id="E2_0_1100m" lane="E2_0" pos="1100" file="NUL"/>
    <e1Detector id="E2_1_1100m" lane="E2_1" pos="1100" file="NUL"/>
    <e1Detector id="E0_0_1200m" lane="E0_0" pos="1200" file="NUL"/>
    <e1Detector id="E0_1_1200m" lane="E0_1" pos="1200" file="NUL"/>
    <e1Detector id="E1_0_1200m" lane="E1_0" pos="1200" file="NUL"/>
    <e1Detector id="E1_1_1200m" lane="E1_1" pos="1200" file="NUL"/>
    <e1Detector id="E2_0_1200m" lane="E2_0" pos="1200" file="NUL"/>
    <e1Detector id="E2_1_1200m" lane="E2_1" pos="1200" file="NUL"/>
    <e1Detector id="E0_0_1300m" lane="E0_0" pos="1300" file="NUL"/>
    <e1Detector id="E0_1_1300m" lane="E0_1" pos="1300" file="NUL"/>
    <e1Detector id="E1_0_1300m" lane="E1_0" pos="1300" file="NUL"/>
    <e1Detector id="E1_1_1300m" lane="E1_1" pos="1300" file="NUL"/>
    <e1Detector id="E2_0_1300m" lane="E2_0" pos="1300" file="NUL"/>
    <e1Detector id="E2_1_1300m" lane="E2_1" pos="1300" file="NUL"/>
    <e1Detector id="E0_0_1400m" lane="E0_0" pos="1400" file="NUL"/>
    <e1Detector id="E0_1_1400m" lane="E0_1" pos="1400" file="NUL"/>
    <e1Detector id="E1_0_1400m" lane="E1_0" pos="1400" file="NUL"/>
    <e1Detector id="E1_1_1400m" lane="E1_1" pos="1400" file="NUL"/>
    <e1Detector id="E2_0_1400m" lane="E2_0" pos="1400" file="NUL"/>
    <e1Detector id="E2_1_1400m" lane="E2_1" pos="1400" file="NUL"/>
    <e1Detector id="E0_0_1500m" lane="E0_0" pos="1500" file="NUL"/>
    <e1Detector id="E0_1_1500m" lane="E0_1" pos="1500" file="NUL"/>
    <e1Detector id="E1_0_1500m" lane="E1_0" pos="1500" file="NUL"/>
    <e1Detector id="E1_1_1500m" lane="E1_1" pos="1500" file="NUL"/>
    <e1Detector id="E2_0_1500m" lane="E2_0" pos="1500" file="NUL"/>
    <e1Detector id="E2_1_1500m" lane="E2_1" pos="1500" file="NUL"/>
    <e1Detector id="E0_0_1600m" lane="E0_0" pos="1600" file="NUL"/>
    <e1Detector id="E0_1_1600m" lane="E0_1" pos="1600" file="NUL"/>
    <e1Detector id="E1_0_1600m" lane="E1_0" pos="1600" file="NUL"/>
    <e1Detector id="E1_1_1600m" lane="E1_1" pos="1600" file="NUL"/>
    <e1Detector id="E2_0_1600m" lane="E2_0" pos="1600" file="NUL"/>
    <e1Detector id="E2_1_1600m" lane="E2_1" pos="1600" file="NUL"/>
    <e1Detector id="E0_0_1700m" lane="E0_0" pos="1700" file="NUL"/>
    <e1Detector id="E0_1_1700m" lane="E0_1" pos="1700" file="NUL"/>
    <e1Detector id="E1_0_1700m" lane="E1_0" pos="1700" file="NUL"/>
    <e1Detector id="E1_1_1700m" lane="E1_1" pos="1700" file="NUL"/>
    <e1Detector id="E2_0_1700m" lane="E2_0" pos="1700" file="NUL"/>
    <e1Detector id="E2_1_1700m" lane="E2_1" pos="1700" file="NUL"/>
    <e1Detector id="E0_0_1800m" lane="E0_0" pos="1800" file="NUL"/>
    <e1Detector id="E0_1_1800m" lane="E0_1" pos="1800" file="NUL"/>
    <e1Detector id="E1_0_1800m" lane="E1_0" pos="1800" file="NUL"/>
    <e1Detector id="E1_1_1800m" lane="E1_1" pos="1800" file="NUL"/>
    <e1Detector id="E2_0_1800m" lane="E2_0" pos="1800" file="NUL"/>
    <e1Detector id="E2_1_1800m" lane="E2_1" pos="1800" file="NUL"/>
    <e1Detector id="E0_0_1900m" lane="E0_0" pos="1900" file="NUL"/>
    <e1Detector id="E0_1_1900m" lane="E0_1" pos="1900" file="NUL"/>
    <e1Detector id="E1_0_1900m" lane="E1_0" pos="1900" file="NUL"/>
    <e1Detector id="E1_1_1900m" lane="E1_1" pos="1900" file="NUL"/>
    <e1Detector id="E2_0_1900m" lane="E2_0" pos="1900" file="NUL"/>
    <e1Detector id="E2_1_1900m" lane="E2_1" pos="1900" file="NUL"/>
</additional>