<additional>
    <edgeData id="E1" file="data.xml" period="60"/>
</additional>