<?xml version='1.0' encoding='UTF-8'?>
<routes>
  <vType id="attack" maxSpeed="55.55" color="red" />
  <vType id="car" vClass="passenger" lcKeepRight="0.8" color="yellow" />
  <vType id="HGV" vClass="truck" maxSpeed="31.0" accel="1.3" decel="3.5" lcStrategic="0.5" lcCooperative="0.5" lcKeepRight="1.0" color="yellow" />
  
  
  <flow from="25409515" to="385618477" id="flow_25409515_to_385618477_car_50400" type="car" begin="50400" end="51300" number="68" />
  <flow from="25409515" to="111657117" id="flow_25409515_to_111657117_car_50400" type="car" begin="50400" end="51300" number="72" />
  <flow from="3239957#1" to="385618477" id="flow_3239957#1_to_385618477_car_50400" type="car" begin="50400" end="51300" number="420" />
  <flow from="3239957#1" to="111657117" id="flow_3239957#1_to_111657117_car_50400" type="car" begin="50400" end="51300" number="454" />
  <flow from="25409515" to="385618477" id="flow_25409515_to_385618477_HGV_50400" type="HGV" begin="50400" end="51300" number="18" />
  <flow from="25409515" to="111657117" id="flow_25409515_to_111657117_HGV_50400" type="HGV" begin="50400" end="51300" number="20" />
  <flow from="3239957#1" to="385618477" id="flow_3239957#1_to_385618477_HGV_50400" type="HGV" begin="50400" end="51300" number="112" />
  <flow from="3239957#1" to="111657117" id="flow_3239957#1_to_111657117_HGV_50400" type="HGV" begin="50400" end="51300" number="122" />
  <vehicle id="ego" type="attack" depart="51300" departLane="best" departSpeed="max">
    <route edges="25409515 1252381912 204901083 3239920" />
  </vehicle>
  <vehicle id="ego2" type="attack" depart="51300" departLane="best" departSpeed="max">
    <route edges="25409515 1252381912 204901083 3239920" />
  </vehicle>
  <flow from="25409515" to="385618477" id="flow_25409515_to_385618477_car_51300" type="car" begin="51300" end="52200" number="86" />
  <flow from="25409515" to="111657117" id="flow_25409515_to_111657117_car_51300" type="car" begin="51300" end="52200" number="92" />
  <flow from="3239957#1" to="385618477" id="flow_3239957#1_to_385618477_car_51300" type="car" begin="51300" end="52200" number="396" />
  <flow from="3239957#1" to="111657117" id="flow_3239957#1_to_111657117_car_51300" type="car" begin="51300" end="52200" number="422" />
  <flow from="25409515" to="385618477" id="flow_25409515_to_385618477_HGV_51300" type="HGV" begin="51300" end="52200" number="24" />
  <flow from="25409515" to="111657117" id="flow_25409515_to_111657117_HGV_51300" type="HGV" begin="51300" end="52200" number="26" />
  <flow from="3239957#1" to="385618477" id="flow_3239957#1_to_385618477_HGV_51300" type="HGV" begin="51300" end="52200" number="106" />
  <flow from="3239957#1" to="111657117" id="flow_3239957#1_to_111657117_HGV_51300" type="HGV" begin="51300" end="52200" number="112" />
  <flow from="25409515" to="385618477" id="flow_25409515_to_385618477_car_52200" type="car" begin="52200" end="53100" number="88" />
  <flow from="25409515" to="111657117" id="flow_25409515_to_111657117_car_52200" type="car" begin="52200" end="53100" number="88" />
  <flow from="3239957#1" to="385618477" id="flow_3239957#1_to_385618477_car_52200" type="car" begin="52200" end="53100" number="440" />
  <flow from="3239957#1" to="111657117" id="flow_3239957#1_to_111657117_car_52200" type="car" begin="52200" end="53100" number="440" />
  <flow from="25409515" to="385618477" id="flow_25409515_to_385618477_HGV_52200" type="HGV" begin="52200" end="53100" number="24" />
  <flow from="25409515" to="111657117" id="flow_25409515_to_111657117_HGV_52200" type="HGV" begin="52200" end="53100" number="24" />
  <flow from="3239957#1" to="385618477" id="flow_3239957#1_to_385618477_HGV_52200" type="HGV" begin="52200" end="53100" number="118" />
  <flow from="3239957#1" to="111657117" id="flow_3239957#1_to_111657117_HGV_52200" type="HGV" begin="52200" end="53100" number="118" />
  <flow from="25409515" to="385618477" id="flow_25409515_to_385618477_car_53100" type="car" begin="53100" end="54000" number="78" />
  <flow from="25409515" to="111657117" id="flow_25409515_to_111657117_car_53100" type="car" begin="53100" end="54000" number="70" />
  <flow from="3239957#1" to="385618477" id="flow_3239957#1_to_385618477_car_53100" type="car" begin="53100" end="54000" number="476" />
  <flow from="3239957#1" to="111657117" id="flow_3239957#1_to_111657117_car_53100" type="car" begin="53100" end="54000" number="430" />
  <flow from="25409515" to="385618477" id="flow_25409515_to_385618477_HGV_53100" type="HGV" begin="53100" end="54000" number="22" />
  <flow from="25409515" to="111657117" id="flow_25409515_to_111657117_HGV_53100" type="HGV" begin="53100" end="54000" number="20" />
  <flow from="3239957#1" to="385618477" id="flow_3239957#1_to_385618477_HGV_53100" type="HGV" begin="53100" end="54000" number="128" />
  <flow from="3239957#1" to="111657117" id="flow_3239957#1_to_111657117_HGV_53100" type="HGV" begin="53100" end="54000" number="116" />
  <flow from="25409515" to="385618477" id="flow_25409515_to_385618477_car_54000" type="car" begin="54000" end="54900" number="84" />
  <flow from="25409515" to="111657117" id="flow_25409515_to_111657117_car_54000" type="car" begin="54000" end="54900" number="76" />
  <flow from="3239957#1" to="385618477" id="flow_3239957#1_to_385618477_car_54000" type="car" begin="54000" end="54900" number="476" />
  <flow from="3239957#1" to="111657117" id="flow_3239957#1_to_111657117_car_54000" type="car" begin="54000" end="54900" number="438" />
  <flow from="25409515" to="385618477" id="flow_25409515_to_385618477_HGV_54000" type="HGV" begin="54000" end="54900" number="22" />
  <flow from="25409515" to="111657117" id="flow_25409515_to_111657117_HGV_54000" type="HGV" begin="54000" end="54900" number="22" />
  <flow from="3239957#1" to="385618477" id="flow_3239957#1_to_385618477_HGV_54000" type="HGV" begin="54000" end="54900" number="128" />
  <flow from="3239957#1" to="111657117" id="flow_3239957#1_to_111657117_HGV_54000" type="HGV" begin="54000" end="54900" number="116" />
  <flow from="25409515" to="385618477" id="flow_25409515_to_385618477_car_54900" type="car" begin="54900" end="55800" number="88" />
  <flow from="25409515" to="111657117" id="flow_25409515_to_111657117_car_54900" type="car" begin="54900" end="55800" number="82" />
  <flow from="3239957#1" to="385618477" id="flow_3239957#1_to_385618477_car_54900" type="car" begin="54900" end="55800" number="498" />
  <flow from="3239957#1" to="111657117" id="flow_3239957#1_to_111657117_car_54900" type="car" begin="54900" end="55800" number="466" />
  <flow from="25409515" to="385618477" id="flow_25409515_to_385618477_HGV_54900" type="HGV" begin="54900" end="55800" number="24" />
  <flow from="25409515" to="111657117" id="flow_25409515_to_111657117_HGV_54900" type="HGV" begin="54900" end="55800" number="22" />
  <flow from="3239957#1" to="385618477" id="flow_3239957#1_to_385618477_HGV_54900" type="HGV" begin="54900" end="55800" number="132" />
  <flow from="3239957#1" to="111657117" id="flow_3239957#1_to_111657117_HGV_54900" type="HGV" begin="54900" end="55800" number="124" />
  <flow from="25409515" to="385618477" id="flow_25409515_to_385618477_car_55800" type="car" begin="55800" end="56700" number="88" />
  <flow from="25409515" to="111657117" id="flow_25409515_to_111657117_car_55800" type="car" begin="55800" end="56700" number="86" />
  <flow from="3239957#1" to="385618477" id="flow_3239957#1_to_385618477_car_55800" type="car" begin="55800" end="56700" number="470" />
  <flow from="3239957#1" to="111657117" id="flow_3239957#1_to_111657117_car_55800" type="car" begin="55800" end="56700" number="454" />
  <flow from="25409515" to="385618477" id="flow_25409515_to_385618477_HGV_55800" type="HGV" begin="55800" end="56700" number="24" />
  <flow from="25409515" to="111657117" id="flow_25409515_to_111657117_HGV_55800" type="HGV" begin="55800" end="56700" number="24" />
  <flow from="3239957#1" to="385618477" id="flow_3239957#1_to_385618477_HGV_55800" type="HGV" begin="55800" end="56700" number="126" />
  <flow from="3239957#1" to="111657117" id="flow_3239957#1_to_111657117_HGV_55800" type="HGV" begin="55800" end="56700" number="122" />
  <flow from="25409515" to="385618477" id="flow_25409515_to_385618477_car_56700" type="car" begin="56700" end="57600" number="100" />
  <flow from="25409515" to="111657117" id="flow_25409515_to_111657117_car_56700" type="car" begin="56700" end="57600" number="86" />
  <flow from="3239957#1" to="385618477" id="flow_3239957#1_to_385618477_car_56700" type="car" begin="56700" end="57600" number="554" />
  <flow from="3239957#1" to="111657117" id="flow_3239957#1_to_111657117_car_56700" type="car" begin="56700" end="57600" number="472" />
  <flow from="25409515" to="385618477" id="flow_25409515_to_385618477_HGV_56700" type="HGV" begin="56700" end="57600" number="28" />
  <flow from="25409515" to="111657117" id="flow_25409515_to_111657117_HGV_56700" type="HGV" begin="56700" end="57600" number="24" />
  <flow from="3239957#1" to="385618477" id="flow_3239957#1_to_385618477_HGV_56700" type="HGV" begin="56700" end="57600" number="148" />
  <flow from="3239957#1" to="111657117" id="flow_3239957#1_to_111657117_HGV_56700" type="HGV" begin="56700" end="57600" number="126" />
  <flow from="25409515" to="385618477" id="flow_25409515_to_385618477_car_57600" type="car" begin="57600" end="58500" number="106" />
  <flow from="25409515" to="111657117" id="flow_25409515_to_111657117_car_57600" type="car" begin="57600" end="58500" number="100" />
  <flow from="3239957#1" to="385618477" id="flow_3239957#1_to_385618477_car_57600" type="car" begin="57600" end="58500" number="480" />
  <flow from="3239957#1" to="111657117" id="flow_3239957#1_to_111657117_car_57600" type="car" begin="57600" end="58500" number="456" />
  <flow from="25409515" to="385618477" id="flow_25409515_to_385618477_HGV_57600" type="HGV" begin="57600" end="58500" number="28" />
  <flow from="25409515" to="111657117" id="flow_25409515_to_111657117_HGV_57600" type="HGV" begin="57600" end="58500" number="28" />
  <flow from="3239957#1" to="385618477" id="flow_3239957#1_to_385618477_HGV_57600" type="HGV" begin="57600" end="58500" number="128" />
  <flow from="3239957#1" to="111657117" id="flow_3239957#1_to_111657117_HGV_57600" type="HGV" begin="57600" end="58500" number="122" />
  <flow from="25409515" to="385618477" id="flow_25409515_to_385618477_car_58500" type="car" begin="58500" end="59400" number="106" />
  <flow from="25409515" to="111657117" id="flow_25409515_to_111657117_car_58500" type="car" begin="58500" end="59400" number="104" />
  <flow from="3239957#1" to="385618477" id="flow_3239957#1_to_385618477_car_58500" type="car" begin="58500" end="59400" number="504" />
  <flow from="3239957#1" to="111657117" id="flow_3239957#1_to_111657117_car_58500" type="car" begin="58500" end="59400" number="498" />
  <flow from="25409515" to="385618477" id="flow_25409515_to_385618477_HGV_58500" type="HGV" begin="58500" end="59400" number="28" />
  <flow from="25409515" to="111657117" id="flow_25409515_to_111657117_HGV_58500" type="HGV" begin="58500" end="59400" number="28" />
  <flow from="3239957#1" to="385618477" id="flow_3239957#1_to_385618477_HGV_58500" type="HGV" begin="58500" end="59400" number="134" />
  <flow from="3239957#1" to="111657117" id="flow_3239957#1_to_111657117_HGV_58500" type="HGV" begin="58500" end="59400" number="134" />
  <flow from="25409515" to="385618477" id="flow_25409515_to_385618477_car_59400" type="car" begin="59400" end="60300" number="104" />
  <flow from="25409515" to="111657117" id="flow_25409515_to_111657117_car_59400" type="car" begin="59400" end="60300" number="94" />
  <flow from="3239957#1" to="385618477" id="flow_3239957#1_to_385618477_car_59400" type="car" begin="59400" end="60300" number="528" />
  <flow from="3239957#1" to="111657117" id="flow_3239957#1_to_111657117_car_59400" type="car" begin="59400" end="60300" number="486" />
  <flow from="25409515" to="385618477" id="flow_25409515_to_385618477_HGV_59400" type="HGV" begin="59400" end="60300" number="28" />
  <flow from="25409515" to="111657117" id="flow_25409515_to_111657117_HGV_59400" type="HGV" begin="59400" end="60300" number="26" />
  <flow from="3239957#1" to="385618477" id="flow_3239957#1_to_385618477_HGV_59400" type="HGV" begin="59400" end="60300" number="142" />
  <flow from="3239957#1" to="111657117" id="flow_3239957#1_to_111657117_HGV_59400" type="HGV" begin="59400" end="60300" number="130" />
  <flow from="25409515" to="385618477" id="flow_25409515_to_385618477_car_60300" type="car" begin="60300" end="61200" number="112" />
  <flow from="25409515" to="111657117" id="flow_25409515_to_111657117_car_60300" type="car" begin="60300" end="61200" number="104" />
  <flow from="3239957#1" to="385618477" id="flow_3239957#1_to_385618477_car_60300" type="car" begin="60300" end="61200" number="568" />
  <flow from="3239957#1" to="111657117" id="flow_3239957#1_to_111657117_car_60300" type="car" begin="60300" end="61200" number="522" />
  <flow from="25409515" to="385618477" id="flow_25409515_to_385618477_HGV_60300" type="HGV" begin="60300" end="61200" number="30" />
  <flow from="25409515" to="111657117" id="flow_25409515_to_111657117_HGV_60300" type="HGV" begin="60300" end="61200" number="28" />
  <flow from="3239957#1" to="385618477" id="flow_3239957#1_to_385618477_HGV_60300" type="HGV" begin="60300" end="61200" number="152" />
  <flow from="3239957#1" to="111657117" id="flow_3239957#1_to_111657117_HGV_60300" type="HGV" begin="60300" end="61200" number="140" />
  <flow from="25409515" to="385618477" id="flow_25409515_to_385618477_car_61200" type="car" begin="61200" end="62100" number="92" />
  <flow from="25409515" to="111657117" id="flow_25409515_to_111657117_car_61200" type="car" begin="61200" end="62100" number="88" />
  <flow from="3239957#1" to="385618477" id="flow_3239957#1_to_385618477_car_61200" type="car" begin="61200" end="62100" number="554" />
  <flow from="3239957#1" to="111657117" id="flow_3239957#1_to_111657117_car_61200" type="car" begin="61200" end="62100" number="538" />
  <flow from="25409515" to="385618477" id="flow_25409515_to_385618477_HGV_61200" type="HGV" begin="61200" end="62100" number="26" />
  <flow from="25409515" to="111657117" id="flow_25409515_to_111657117_HGV_61200" type="HGV" begin="61200" end="62100" number="24" />
  <flow from="3239957#1" to="385618477" id="flow_3239957#1_to_385618477_HGV_61200" type="HGV" begin="61200" end="62100" number="148" />
  <flow from="3239957#1" to="111657117" id="flow_3239957#1_to_111657117_HGV_61200" type="HGV" begin="61200" end="62100" number="144" />
  <flow from="25409515" to="385618477" id="flow_25409515_to_385618477_car_62100" type="car" begin="62100" end="63000" number="80" />
  <flow from="25409515" to="111657117" id="flow_25409515_to_111657117_car_62100" type="car" begin="62100" end="63000" number="76" />
  <flow from="3239957#1" to="385618477" id="flow_3239957#1_to_385618477_car_62100" type="car" begin="62100" end="63000" number="580" />
  <flow from="3239957#1" to="111657117" id="flow_3239957#1_to_111657117_car_62100" type="car" begin="62100" end="63000" number="558" />
  <flow from="25409515" to="385618477" id="flow_25409515_to_385618477_HGV_62100" type="HGV" begin="62100" end="63000" number="22" />
  <flow from="25409515" to="111657117" id="flow_25409515_to_111657117_HGV_62100" type="HGV" begin="62100" end="63000" number="22" />
  <flow from="3239957#1" to="385618477" id="flow_3239957#1_to_385618477_HGV_62100" type="HGV" begin="62100" end="63000" number="154" />
  <flow from="3239957#1" to="111657117" id="flow_3239957#1_to_111657117_HGV_62100" type="HGV" begin="62100" end="63000" number="150" />
  <flow from="25409515" to="385618477" id="flow_25409515_to_385618477_car_63000" type="car" begin="63000" end="63900" number="88" />
  <flow from="25409515" to="111657117" id="flow_25409515_to_111657117_car_63000" type="car" begin="63000" end="63900" number="86" />
  <flow from="3239957#1" to="385618477" id="flow_3239957#1_to_385618477_car_63000" type="car" begin="63000" end="63900" number="480" />
  <flow from="3239957#1" to="111657117" id="flow_3239957#1_to_111657117_car_63000" type="car" begin="63000" end="63900" number="462" />
  <flow from="25409515" to="385618477" id="flow_25409515_to_385618477_HGV_63000" type="HGV" begin="63000" end="63900" number="24" />
  <flow from="25409515" to="111657117" id="flow_25409515_to_111657117_HGV_63000" type="HGV" begin="63000" end="63900" number="24" />
  <flow from="3239957#1" to="385618477" id="flow_3239957#1_to_385618477_HGV_63000" type="HGV" begin="63000" end="63900" number="128" />
  <flow from="3239957#1" to="111657117" id="flow_3239957#1_to_111657117_HGV_63000" type="HGV" begin="63000" end="63900" number="124" />
  <flow from="25409515" to="385618477" id="flow_25409515_to_385618477_car_63900" type="car" begin="63900" end="64800" number="124" />
  <flow from="25409515" to="111657117" id="flow_25409515_to_111657117_car_63900" type="car" begin="63900" end="64800" number="110" />
  <flow from="3239957#1" to="385618477" id="flow_3239957#1_to_385618477_car_63900" type="car" begin="63900" end="64800" number="504" />
  <flow from="3239957#1" to="111657117" id="flow_3239957#1_to_111657117_car_63900" type="car" begin="63900" end="64800" number="454" />
  <flow from="25409515" to="385618477" id="flow_25409515_to_385618477_HGV_63900" type="HGV" begin="63900" end="64800" number="34" />
  <flow from="25409515" to="111657117" id="flow_25409515_to_111657117_HGV_63900" type="HGV" begin="63900" end="64800" number="30" />
  <flow from="3239957#1" to="385618477" id="flow_3239957#1_to_385618477_HGV_63900" type="HGV" begin="63900" end="64800" number="134" />
  <flow from="3239957#1" to="111657117" id="flow_3239957#1_to_111657117_HGV_63900" type="HGV" begin="63900" end="64800" number="122" />
  <flow from="25409515" to="385618477" id="flow_25409515_to_385618477_car_64800" type="car" begin="64800" end="65700" number="74" />
  <flow from="25409515" to="111657117" id="flow_25409515_to_111657117_car_64800" type="car" begin="64800" end="65700" number="66" />
  <flow from="3239957#1" to="385618477" id="flow_3239957#1_to_385618477_car_64800" type="car" begin="64800" end="65700" number="464" />
  <flow from="3239957#1" to="111657117" id="flow_3239957#1_to_111657117_car_64800" type="car" begin="64800" end="65700" number="408" />
  <flow from="25409515" to="385618477" id="flow_25409515_to_385618477_HGV_64800" type="HGV" begin="64800" end="65700" number="20" />
  <flow from="25409515" to="111657117" id="flow_25409515_to_111657117_HGV_64800" type="HGV" begin="64800" end="65700" number="18" />
  <flow from="3239957#1" to="385618477" id="flow_3239957#1_to_385618477_HGV_64800" type="HGV" begin="64800" end="65700" number="124" />
  <flow from="3239957#1" to="111657117" id="flow_3239957#1_to_111657117_HGV_64800" type="HGV" begin="64800" end="65700" number="110" />
  <flow from="25409515" to="385618477" id="flow_25409515_to_385618477_car_65700" type="car" begin="65700" end="66600" number="92" />
  <flow from="25409515" to="111657117" id="flow_25409515_to_111657117_car_65700" type="car" begin="65700" end="66600" number="78" />
  <flow from="3239957#1" to="385618477" id="flow_3239957#1_to_385618477_car_65700" type="car" begin="65700" end="66600" number="444" />
  <flow from="3239957#1" to="111657117" id="flow_3239957#1_to_111657117_car_65700" type="car" begin="65700" end="66600" number="374" />
  <flow from="25409515" to="385618477" id="flow_25409515_to_385618477_HGV_65700" type="HGV" begin="65700" end="66600" number="26" />
  <flow from="25409515" to="111657117" id="flow_25409515_to_111657117_HGV_65700" type="HGV" begin="65700" end="66600" number="22" />
  <flow from="3239957#1" to="385618477" id="flow_3239957#1_to_385618477_HGV_65700" type="HGV" begin="65700" end="66600" number="118" />
  <flow from="3239957#1" to="111657117" id="flow_3239957#1_to_111657117_HGV_65700" type="HGV" begin="65700" end="66600" number="100" />
  
</routes>