<routes>
    <vType id="car" maxSpeed="55.55" color="yellow"/>
    <vType id="taxi" maxSpeed="55.55" color="red"/>
    
    <!--taxi routes-->
    <route id="taxi-anticlockwise" edges="D3C3 C3B3" />
    <route id="taxi-clockwise" edges="D3D2 D2D1" />

    <!--taxi flows-->
    <flow id="flow_taxi-anticlockwise" route="taxi-anticlockwise" type="taxi" begin="0" number="10" period="5" departSpeed="desired"/>
    <flow id="flow_taxi-clockwise" route="taxi-clockwise" type="taxi" begin="0" number="10" period="5" departSpeed="desired"/>
</routes>
