<?xml version="1.0" encoding="UTF-8"?>

<!-- generated on 2025-01-25 22:19:41 by Eclipse SUMO netedit Version 1.18.0
<configuration xmlns:xsi="http://www.w3.org/2001/XMLSchema-instance" xsi:noNamespaceSchemaLocation="http://sumo.dlr.de/xsd/neteditConfiguration.xsd">

    <input>
        <sumo-net-file value="/home/don/src/sumo-paper-grid/sumo-operational-project/M25/M25_joined.net.xml"/>
    </input>

    <output>
        <output-file value="/home/don/src/sumo-paper-grid/sumo-operational-project/M25/M25_joined.net.xml"/>
    </output>

    <processing>
        <geometry.min-radius.fix.railways value="false"/>
        <geometry.max-grade.fix value="false"/>
        <offset.disable-normalization value="true"/>
        <lefthand value="1"/>
    </processing>

    <junctions>
        <no-turnarounds value="true"/>
        <junctions.corner-detail value="5"/>
        <junctions.limit-turn-speed value="5.50"/>
        <rectangular-lane-cut value="0"/>
    </junctions>

    <pedestrian>
        <walkingareas value="0"/>
    </pedestrian>

</configuration>
-->

<net version="1.16" junctionCornerDetail="5" lefthand="true" limitTurnSpeed="5.50" xmlns:xsi="http://www.w3.org/2001/XMLSchema-instance" xsi:noNamespaceSchemaLocation="http://sumo.dlr.de/xsd/net_file.xsd">

    <location netOffset="-298389.04,-5719805.35" convBoundary="0.00,0.00,13961.27,10610.08" origBoundary="0.086141,51.597481,0.288742,51.688850" projParameter="+proj=utm +zone=31 +ellps=WGS84 +datum=WGS84 +units=m +no_defs"/>

    <type id="highway.motorway" priority="14" numLanes="2" speed="39.44" allow="private emergency authority army vip passenger hov taxi bus coach delivery truck trailer motorcycle evehicle custom1 custom2" oneway="1"/>
    <type id="highway.motorway_link" priority="9" numLanes="1" speed="22.22" allow="private emergency authority army vip passenger hov taxi bus coach delivery truck trailer motorcycle evehicle custom1 custom2" oneway="1"/>
    <type id="highway.trunk" priority="13" numLanes="2" speed="27.78" disallow="pedestrian bicycle tram rail_urban rail rail_electric rail_fast ship" oneway="0"/>

    <edge id=":105065976#0-AddedOnRampNode_0" function="internal">
        <lane id=":105065976#0-AddedOnRampNode_0_0" index="0" allow="private emergency authority army vip passenger hov taxi bus coach delivery truck trailer motorcycle evehicle custom1 custom2" speed="31.29" length="8.00" shape="2634.97,9142.73 2631.08,9135.75"/>
        <lane id=":105065976#0-AddedOnRampNode_0_1" index="1" allow="private emergency authority army vip passenger hov taxi bus coach delivery truck trailer motorcycle evehicle custom1 custom2" speed="31.29" length="8.00" shape="2632.18,9144.29 2628.28,9137.30"/>
    </edge>
    <edge id=":105065976#1-AddedOnRampNode_0" function="internal">
        <lane id=":105065976#1-AddedOnRampNode_0_0" index="0" allow="private emergency authority army vip passenger hov taxi bus coach delivery truck trailer motorcycle evehicle custom1 custom2" speed="31.29" length="8.00" shape="2447.17,8715.00 2443.84,8707.73"/>
        <lane id=":105065976#1-AddedOnRampNode_0_1" index="1" allow="private emergency authority army vip passenger hov taxi bus coach delivery truck trailer motorcycle evehicle custom1 custom2" speed="31.29" length="8.00" shape="2444.26,8716.33 2440.93,8709.06"/>
    </edge>
    <edge id=":11161608328_0" function="internal">
        <lane id=":11161608328_0_0" index="0" disallow="pedestrian bicycle tram rail_urban rail rail_electric rail_fast ship" speed="22.35" length="8.17" shape="11076.55,727.18 11074.52,725.85 11073.33,724.64 11072.13,723.44 11070.08,722.17"/>
        <lane id=":11161608328_0_1" index="1" disallow="pedestrian bicycle tram rail_urban rail rail_electric rail_fast ship" speed="22.35" length="8.17" shape="11075.09,730.02 11073.08,728.71 11071.91,727.50 11070.72,726.31 11068.69,725.06"/>
        <lane id=":11161608328_0_2" index="2" disallow="pedestrian bicycle tram rail_urban rail rail_electric rail_fast ship" speed="22.35" length="8.17" shape="11075.09,730.02 11072.87,729.17 11071.22,728.95 11069.55,728.74 11067.31,727.94"/>
    </edge>
    <edge id=":11161620965_0" function="internal">
        <lane id=":11161620965_0_0" index="0" disallow="pedestrian bicycle tram rail_urban rail rail_electric rail_fast ship" speed="22.35" length="8.18" shape="11396.24,883.81 11394.20,882.52 11393.00,881.32 11391.79,880.14 11389.73,878.89"/>
        <lane id=":11161620965_0_1" index="1" disallow="pedestrian bicycle tram rail_urban rail rail_electric rail_fast ship" speed="22.35" length="8.18" shape="11394.82,886.68 11392.79,885.40 11391.61,884.21 11390.41,883.03 11388.37,881.79"/>
    </edge>
    <edge id=":11161620966_0" function="internal">
        <lane id=":11161620966_0_0" index="0" disallow="pedestrian bicycle tram rail_urban rail rail_electric rail_fast ship" speed="31.29" length="8.20" shape="11539.45,950.79 11537.39,949.53 11536.17,948.34 11534.94,947.17 11532.86,945.94"/>
        <lane id=":11161620966_0_1" index="1" disallow="pedestrian bicycle tram rail_urban rail rail_electric rail_fast ship" speed="31.29" length="8.20" shape="11539.45,950.79 11537.18,949.98 11535.50,949.80 11533.81,949.62 11531.53,948.85"/>
        <lane id=":11161620966_0_2" index="2" disallow="pedestrian bicycle tram rail_urban rail rail_electric rail_fast ship" speed="31.29" length="8.20" shape="11538.07,953.68 11535.82,952.88 11534.15,952.69 11532.47,952.52 11530.20,951.76"/>
    </edge>
    <edge id=":11161621044_0" function="internal">
        <lane id=":11161621044_0_0" index="0" disallow="pedestrian bicycle tram rail_urban rail rail_electric rail_fast ship" speed="31.29" length="0.29" shape="11698.41,1044.88 11698.71,1045.01"/>
        <lane id=":11161621044_0_1" index="1" disallow="pedestrian bicycle tram rail_urban rail rail_electric rail_fast ship" speed="31.29" length="0.29" shape="11699.77,1041.98 11700.03,1042.10"/>
        <lane id=":11161621044_0_2" index="2" disallow="pedestrian bicycle tram rail_urban rail rail_electric rail_fast ship" speed="31.29" length="0.29" shape="11701.12,1039.08 11701.36,1039.19"/>
    </edge>
    <edge id=":11161621053_0" function="internal">
        <lane id=":11161621053_0_0" index="0" disallow="pedestrian bicycle tram rail_urban rail rail_electric rail_fast ship" speed="31.29" length="0.29" shape="12532.56,1644.98 12532.75,1645.12"/>
        <lane id=":11161621053_0_1" index="1" disallow="pedestrian bicycle tram rail_urban rail rail_electric rail_fast ship" speed="31.29" length="0.29" shape="12534.49,1642.42 12534.71,1642.60"/>
        <lane id=":11161621053_0_2" index="2" disallow="pedestrian bicycle tram rail_urban rail rail_electric rail_fast ship" speed="31.29" length="0.29" shape="12536.41,1639.87 12536.68,1640.07"/>
    </edge>
    <edge id=":11161621128_0" function="internal">
        <lane id=":11161621128_0_0" index="0" allow="private emergency authority army vip passenger hov taxi bus coach delivery truck trailer motorcycle evehicle custom1 custom2" speed="31.29" length="0.30" shape="12100.61,1113.96 12100.39,1114.17"/>
        <lane id=":11161621128_0_1" index="1" allow="private emergency authority army vip passenger hov taxi bus coach delivery truck trailer motorcycle evehicle custom1 custom2" speed="31.29" length="0.30" shape="12102.81,1116.28 12102.60,1116.49"/>
        <lane id=":11161621128_0_2" index="2" allow="private emergency authority army vip passenger hov taxi bus coach delivery truck trailer motorcycle evehicle custom1 custom2" speed="31.29" length="0.30" shape="12105.02,1118.60 12104.81,1118.80"/>
        <lane id=":11161621128_0_3" index="3" allow="private emergency authority army vip passenger hov taxi bus coach delivery truck trailer motorcycle evehicle custom1 custom2" speed="31.29" length="0.30" shape="12107.23,1120.91 12107.02,1121.11"/>
    </edge>
    <edge id=":11161621155_0" function="internal">
        <lane id=":11161621155_0_0" index="0" disallow="pedestrian bicycle tram rail_urban rail rail_electric rail_fast ship" speed="22.35" length="8.14" shape="11440.57,903.81 11438.53,902.61 11437.34,901.45 11436.16,900.27 11434.15,899.00"/>
        <lane id=":11161621155_0_1" index="1" disallow="pedestrian bicycle tram rail_urban rail rail_electric rail_fast ship" speed="22.35" length="8.14" shape="11440.57,903.81 11438.30,903.05 11436.63,902.89 11434.96,902.69 11432.73,901.87"/>
        <lane id=":11161621155_0_2" index="2" disallow="pedestrian bicycle tram rail_urban rail rail_electric rail_fast ship" speed="22.35" length="8.14" shape="11439.25,906.72 11436.95,905.96 11435.26,905.78 11433.58,905.58 11431.31,904.74"/>
    </edge>
    <edge id=":11167634011_0" function="internal">
        <lane id=":11167634011_0_0" index="0" allow="private emergency authority army vip passenger hov taxi bus coach delivery truck trailer motorcycle evehicle custom1 custom2" speed="31.29" length="0.10" shape="12247.57,1024.19 12247.57,1024.19"/>
        <lane id=":11167634011_0_1" index="1" allow="private emergency authority army vip passenger hov taxi bus coach delivery truck trailer motorcycle evehicle custom1 custom2" speed="31.29" length="0.10" shape="12244.69,1022.79 12244.69,1022.79"/>
    </edge>
    <edge id=":11167634021_0" function="internal">
        <lane id=":11167634021_0_0" index="0" allow="private emergency authority army vip passenger hov taxi bus coach delivery truck trailer motorcycle evehicle custom1 custom2" speed="31.29" length="8.51" shape="11722.41,1808.83 11724.25,1806.89 11726.37,1806.36 11728.50,1805.83 11730.33,1803.89"/>
        <lane id=":11167634021_0_1" index="1" allow="private emergency authority army vip passenger hov taxi bus coach delivery truck trailer motorcycle evehicle custom1 custom2" speed="31.29" length="8.51" shape="11722.41,1808.83 11723.73,1806.81 11724.95,1805.63 11726.17,1804.45 11727.48,1802.43"/>
        <lane id=":11167634021_0_2" index="2" allow="private emergency authority army vip passenger hov taxi bus coach delivery truck trailer motorcycle evehicle custom1 custom2" speed="31.29" length="8.51" shape="11719.56,1807.37 11720.88,1805.35 11722.10,1804.17 11723.32,1803.00 11724.63,1800.98"/>
        <lane id=":11167634021_0_3" index="3" allow="private emergency authority army vip passenger hov taxi bus coach delivery truck trailer motorcycle evehicle custom1 custom2" speed="31.29" length="8.51" shape="11716.71,1805.91 11718.03,1803.89 11719.25,1802.72 11720.47,1801.54 11721.78,1799.52"/>
        <lane id=":11167634021_0_4" index="4" allow="private emergency authority army vip passenger hov taxi bus coach delivery truck trailer motorcycle evehicle custom1 custom2" speed="31.29" length="8.51" shape="11713.86,1804.45 11715.18,1802.43 11716.40,1801.26 11717.62,1800.08 11718.93,1798.07"/>
    </edge>
    <edge id=":11184074505_0" function="internal">
        <lane id=":11184074505_0_0" index="0" disallow="pedestrian bicycle tram rail_urban rail rail_electric rail_fast ship" speed="31.29" length="8.16" shape="11734.87,1057.96 11736.95,1059.18 11738.19,1060.34 11739.44,1061.48 11741.54,1062.64"/>
        <lane id=":11184074505_0_1" index="1" disallow="pedestrian bicycle tram rail_urban rail rail_electric rail_fast ship" speed="31.29" length="8.16" shape="11736.20,1055.05 11738.26,1056.26 11739.48,1057.41 11740.71,1058.54 11742.79,1059.70"/>
    </edge>
    <edge id=":11184074510_0" function="internal">
        <lane id=":11184074510_0_0" index="0" disallow="pedestrian bicycle tram rail_urban rail rail_electric rail_fast ship" speed="31.29" length="0.30" shape="11693.05,1022.48 11692.77,1022.35"/>
        <lane id=":11184074510_0_1" index="1" disallow="pedestrian bicycle tram rail_urban rail rail_electric rail_fast ship" speed="31.29" length="0.30" shape="11691.70,1025.38 11691.42,1025.26"/>
        <lane id=":11184074510_0_2" index="2" disallow="pedestrian bicycle tram rail_urban rail rail_electric rail_fast ship" speed="31.29" length="0.30" shape="11690.34,1028.28 11690.08,1028.16"/>
    </edge>
    <edge id=":11497649252_0" function="internal">
        <lane id=":11497649252_0_0" index="0" allow="private emergency authority army vip passenger hov taxi bus coach delivery truck trailer motorcycle evehicle custom1 custom2" speed="31.29" length="8.15" shape="2273.83,9616.80 2271.54,9617.50 2269.86,9617.64 2268.19,9617.79 2265.92,9618.55"/>
    </edge>
    <edge id=":11815666929_0" function="internal">
        <lane id=":11815666929_0_0" index="0" allow="private emergency authority army vip passenger hov taxi bus coach delivery truck trailer motorcycle evehicle custom1 custom2" speed="31.29" length="0.26" shape="11897.23,1406.11 11897.16,1406.21"/>
        <lane id=":11815666929_0_1" index="1" allow="private emergency authority army vip passenger hov taxi bus coach delivery truck trailer motorcycle evehicle custom1 custom2" speed="31.29" length="0.26" shape="11899.98,1407.73 11899.77,1408.06"/>
    </edge>
    <edge id=":12086395_0" function="internal">
        <lane id=":12086395_0_0" index="0" allow="private emergency authority army vip passenger hov taxi bus coach delivery truck trailer motorcycle evehicle custom1 custom2" speed="31.29" length="8.07" shape="12346.70,784.97 12347.33,782.63 12347.38,780.92 12347.40,779.21 12347.93,776.83"/>
        <lane id=":12086395_0_1" index="1" allow="private emergency authority army vip passenger hov taxi bus coach delivery truck trailer motorcycle evehicle custom1 custom2" speed="31.29" length="8.07" shape="12343.71,783.82 12344.33,781.52 12344.37,779.85 12344.37,778.16 12344.89,775.82"/>
        <lane id=":12086395_0_2" index="2" allow="private emergency authority army vip passenger hov taxi bus coach delivery truck trailer motorcycle evehicle custom1 custom2" speed="31.29" length="8.07" shape="12340.73,782.68 12341.33,780.41 12341.36,778.77 12341.35,777.11 12341.86,774.81"/>
        <lane id=":12086395_0_3" index="3" allow="private emergency authority army vip passenger hov taxi bus coach delivery truck trailer motorcycle evehicle custom1 custom2" speed="31.29" length="8.07" shape="12337.74,781.53 12338.33,779.30 12338.34,777.69 12338.33,776.06 12338.82,773.80"/>
    </edge>
    <edge id=":12086402_0" function="internal">
        <lane id=":12086402_0_0" index="0" allow="private emergency authority army vip passenger hov taxi bus coach delivery truck trailer motorcycle evehicle custom1 custom2" speed="31.29" length="2.66" shape="11619.30,1929.61 11618.95,1930.30 11618.70,1930.77 11618.43,1931.22 11618.02,1931.87"/>
        <lane id=":12086402_0_1" index="1" allow="private emergency authority army vip passenger hov taxi bus coach delivery truck trailer motorcycle evehicle custom1 custom2" speed="31.29" length="2.66" shape="11622.08,1931.21 11621.71,1931.93 11621.45,1932.42 11621.16,1932.89 11620.73,1933.58"/>
    </edge>
    <edge id=":12086402_2" function="internal">
        <lane id=":12086402_2_0" index="0" allow="private emergency authority army vip passenger hov taxi bus coach delivery truck trailer motorcycle evehicle custom1 custom2" speed="31.29" length="3.45" shape="11623.52,1932.04 11623.43,1935.29"/>
        <lane id=":12086402_2_1" index="1" allow="private emergency authority army vip passenger hov taxi bus coach delivery truck trailer motorcycle evehicle custom1 custom2" speed="31.29" length="3.45" shape="11626.29,1933.63 11626.04,1934.57 11626.24,1935.33 11626.43,1936.08 11626.14,1937.00"/>
        <lane id=":12086402_2_2" index="2" allow="private emergency authority army vip passenger hov taxi bus coach delivery truck trailer motorcycle evehicle custom1 custom2" speed="31.29" length="3.45" shape="11629.07,1935.22 11628.80,1936.20 11628.98,1936.98 11629.15,1937.75 11628.84,1938.71"/>
    </edge>
    <edge id=":12086416_0" function="internal">
        <lane id=":12086416_0_0" index="0" allow="private emergency authority army vip passenger hov taxi bus coach delivery truck trailer motorcycle evehicle custom1 custom2" speed="31.29" length="0.58" shape="7336.24,6364.53 7335.92,6364.74"/>
        <lane id=":12086416_0_1" index="1" allow="private emergency authority army vip passenger hov taxi bus coach delivery truck trailer motorcycle evehicle custom1 custom2" speed="31.29" length="0.58" shape="7338.04,6367.17 7337.61,6367.45"/>
        <lane id=":12086416_0_2" index="2" allow="private emergency authority army vip passenger hov taxi bus coach delivery truck trailer motorcycle evehicle custom1 custom2" speed="31.29" length="0.58" shape="7339.84,6369.82 7339.30,6370.17"/>
        <lane id=":12086416_0_3" index="3" allow="private emergency authority army vip passenger hov taxi bus coach delivery truck trailer motorcycle evehicle custom1 custom2" speed="31.29" length="0.58" shape="7341.64,6372.47 7340.99,6372.89"/>
    </edge>
    <edge id=":12086430_0" function="internal">
        <lane id=":12086430_0_0" index="0" allow="private emergency authority army vip passenger hov taxi bus coach delivery truck trailer motorcycle evehicle custom1 custom2" speed="31.29" length="3.32" shape="3596.31,9129.68 3593.64,9131.65"/>
    </edge>
    <edge id=":12086430_1" function="internal">
        <lane id=":12086430_1_0" index="0" allow="private emergency authority army vip passenger hov taxi bus coach delivery truck trailer motorcycle evehicle custom1 custom2" speed="31.29" length="3.15" shape="3598.16,9132.29 3595.53,9134.13"/>
        <lane id=":12086430_1_1" index="1" allow="private emergency authority army vip passenger hov taxi bus coach delivery truck trailer motorcycle evehicle custom1 custom2" speed="31.29" length="3.15" shape="3600.01,9134.90 3597.47,9136.67"/>
    </edge>
    <edge id=":1221111667_0" function="internal">
        <lane id=":1221111667_0_0" index="0" allow="private emergency authority army vip passenger hov taxi bus coach delivery truck trailer motorcycle evehicle custom1 custom2" speed="31.29" length="0.41" shape="12103.51,1111.19 12103.31,1111.38"/>
        <lane id=":1221111667_0_1" index="1" allow="private emergency authority army vip passenger hov taxi bus coach delivery truck trailer motorcycle evehicle custom1 custom2" speed="31.29" length="0.41" shape="12105.78,1113.45 12105.52,1113.70"/>
        <lane id=":1221111667_0_2" index="2" allow="private emergency authority army vip passenger hov taxi bus coach delivery truck trailer motorcycle evehicle custom1 custom2" speed="31.29" length="0.41" shape="12108.05,1115.70 12107.73,1116.02"/>
        <lane id=":1221111667_0_3" index="3" allow="private emergency authority army vip passenger hov taxi bus coach delivery truck trailer motorcycle evehicle custom1 custom2" speed="31.29" length="0.41" shape="12110.32,1117.96 12109.93,1118.34"/>
    </edge>
    <edge id=":1221111679_0" function="internal">
        <lane id=":1221111679_0_0" index="0" allow="private emergency authority army vip passenger hov taxi bus coach delivery truck trailer motorcycle evehicle custom1 custom2" speed="31.29" length="8.60" shape="12168.96,1040.69 12166.95,1042.19 12165.10,1042.61 12163.26,1043.02 12161.25,1044.52"/>
        <lane id=":1221111679_0_1" index="1" allow="private emergency authority army vip passenger hov taxi bus coach delivery truck trailer motorcycle evehicle custom1 custom2" speed="31.29" length="8.60" shape="12171.35,1042.82 12169.34,1044.33 12167.49,1044.74 12165.64,1045.15 12163.63,1046.65"/>
        <lane id=":1221111679_0_2" index="2" allow="private emergency authority army vip passenger hov taxi bus coach delivery truck trailer motorcycle evehicle custom1 custom2" speed="31.29" length="8.60" shape="12171.35,1042.82 12166.01,1048.79"/>
        <lane id=":1221111679_0_3" index="3" allow="private emergency authority army vip passenger hov taxi bus coach delivery truck trailer motorcycle evehicle custom1 custom2" speed="31.29" length="8.60" shape="12171.35,1042.82 12170.08,1044.99 12169.87,1046.87 12169.67,1048.75 12168.40,1050.92"/>
    </edge>
    <edge id=":13326695_0" function="internal">
        <lane id=":13326695_0_0" index="0" allow="private emergency authority army vip passenger hov taxi bus coach delivery truck trailer motorcycle evehicle custom1 custom2" speed="31.29" length="4.16" shape="3113.57,9676.09 3111.60,9672.30"/>
        <lane id=":13326695_0_1" index="1" allow="private emergency authority army vip passenger hov taxi bus coach delivery truck trailer motorcycle evehicle custom1 custom2" speed="31.29" length="4.16" shape="3110.67,9677.44 3108.80,9673.86"/>
    </edge>
    <edge id=":13326695_2" function="internal">
        <lane id=":13326695_2_0" index="0" allow="private emergency authority army vip passenger hov taxi bus coach delivery truck trailer motorcycle evehicle custom1 custom2" speed="31.29" length="3.81" shape="3107.76,9678.79 3107.28,9677.76 3106.92,9677.08 3106.51,9676.42 3105.88,9675.49"/>
        <lane id=":13326695_2_1" index="1" allow="private emergency authority army vip passenger hov taxi bus coach delivery truck trailer motorcycle evehicle custom1 custom2" speed="31.29" length="3.27" shape="3104.86,9680.14 3104.45,9679.26 3104.14,9678.67 3103.79,9678.11 3103.24,9677.30"/>
    </edge>
    <edge id=":13326699_0" function="internal">
        <lane id=":13326699_0_0" index="0" allow="private emergency authority army vip passenger hov taxi bus coach delivery truck trailer motorcycle evehicle custom1 custom2" speed="31.29" length="0.25" shape="2758.07,9431.47 2757.87,9431.69"/>
        <lane id=":13326699_0_1" index="1" allow="private emergency authority army vip passenger hov taxi bus coach delivery truck trailer motorcycle evehicle custom1 custom2" speed="31.29" length="0.25" shape="2760.38,9433.69 2760.24,9433.83"/>
    </edge>
    <edge id=":13326705_0" function="internal">
        <lane id=":13326705_0_0" index="0" allow="private emergency authority army vip passenger hov taxi bus coach delivery truck trailer motorcycle evehicle custom1 custom2" speed="31.29" length="2.95" shape="3283.92,9300.67 3281.22,9301.85"/>
    </edge>
    <edge id=":13326705_1" function="internal">
        <lane id=":13326705_1_0" index="0" allow="private emergency authority army vip passenger hov taxi bus coach delivery truck trailer motorcycle evehicle custom1 custom2" speed="31.29" length="3.00" shape="3285.20,9303.65 3282.43,9304.81"/>
    </edge>
    <edge id=":1367723050_0" function="internal">
        <lane id=":1367723050_0_0" index="0" disallow="pedestrian bicycle tram rail_urban rail rail_electric rail_fast ship" speed="26.82" length="0.84" shape="12130.76,1300.62 12131.08,1300.37 12131.30,1300.18 12131.50,1299.98 12131.77,1299.68"/>
        <lane id=":1367723050_0_1" index="1" disallow="pedestrian bicycle tram rail_urban rail rail_electric rail_fast ship" speed="26.82" length="0.84" shape="12128.79,1298.10 12128.98,1297.94 12129.11,1297.83 12129.23,1297.71 12129.40,1297.53"/>
        <lane id=":1367723050_0_2" index="2" disallow="pedestrian bicycle tram rail_urban rail rail_electric rail_fast ship" speed="26.82" length="0.84" shape="12126.82,1295.57 12126.89,1295.52 12126.93,1295.48 12126.97,1295.44 12127.03,1295.38"/>
    </edge>
    <edge id=":1367727556_0" function="internal">
        <lane id=":1367727556_0_0" index="0" disallow="pedestrian bicycle tram rail_urban rail rail_electric rail_fast ship" speed="31.29" length="7.91" shape="12397.64,1529.52 12395.79,1528.05 12394.73,1526.76 12393.65,1525.52 12391.72,1524.19"/>
        <lane id=":1367727556_0_1" index="1" disallow="pedestrian bicycle tram rail_urban rail rail_electric rail_fast ship" speed="31.29" length="7.91" shape="12395.93,1532.22 12394.13,1530.79 12393.11,1529.52 12392.07,1528.30 12390.20,1527.00"/>
    </edge>
    <edge id=":1367731679_0" function="internal">
        <lane id=":1367731679_0_0" index="0" disallow="pedestrian bicycle tram rail_urban rail rail_electric rail_fast ship" speed="26.82" length="0.47" shape="12069.20,1134.16 12068.98,1134.23 12068.83,1134.27 12068.68,1134.32 12068.47,1134.41"/>
        <lane id=":1367731679_0_1" index="1" disallow="pedestrian bicycle tram rail_urban rail rail_electric rail_fast ship" speed="26.82" length="0.47" shape="12070.05,1137.25 12069.92,1137.29 12069.83,1137.31 12069.74,1137.34 12069.61,1137.39"/>
        <lane id=":1367731679_0_2" index="2" disallow="pedestrian bicycle tram rail_urban rail rail_electric rail_fast ship" speed="26.82" length="0.47" shape="12070.91,1140.33 12070.86,1140.35 12070.83,1140.35 12070.80,1140.36 12070.76,1140.38"/>
    </edge>
    <edge id=":1367736202_0" function="internal">
        <lane id=":1367736202_0_0" index="0" allow="private emergency authority army vip passenger hov taxi bus coach delivery truck trailer motorcycle evehicle custom1 custom2" speed="31.29" length="1.72" shape="12028.19,1351.09 12028.29,1350.95 12028.37,1350.86 12028.46,1350.79 12028.60,1350.69"/>
        <lane id=":1367736202_0_1" index="1" allow="private emergency authority army vip passenger hov taxi bus coach delivery truck trailer motorcycle evehicle custom1 custom2" speed="10.21" length="1.72" shape="12025.58,1349.24 12025.88,1348.82 12026.11,1348.56 12026.38,1348.33 12026.79,1348.04"/>
        <lane id=":1367736202_0_2" index="2" allow="private emergency authority army vip passenger hov taxi bus coach delivery truck trailer motorcycle evehicle custom1 custom2" speed="13.07" length="1.72" shape="12022.97,1347.38 12023.47,1346.70 12023.85,1346.26 12024.30,1345.88 12024.99,1345.40"/>
    </edge>
    <edge id=":1430923081_0" function="internal">
        <lane id=":1430923081_0_0" index="0" allow="private emergency authority army vip passenger hov taxi bus coach delivery truck trailer motorcycle evehicle custom1 custom2" speed="31.29" length="7.89" shape="2754.66,9650.42 2756.98,9650.60 2758.55,9651.08 2760.11,9651.50 2762.42,9651.52"/>
    </edge>
    <edge id=":1430923086_0" function="internal">
        <lane id=":1430923086_0_0" index="0" allow="private emergency authority army vip passenger hov taxi bus coach delivery truck trailer motorcycle evehicle custom1 custom2" speed="31.29" length="0.10" shape="2869.85,9601.84 2869.85,9601.84"/>
    </edge>
    <edge id=":1430923108_0" function="internal">
        <lane id=":1430923108_0_0" index="0" allow="private emergency authority army vip passenger hov taxi bus coach delivery truck trailer motorcycle evehicle custom1 custom2" speed="31.29" length="0.40" shape="2478.48,9629.60 2478.54,9629.60 2478.58,9629.59 2478.62,9629.59 2478.68,9629.60"/>
        <lane id=":1430923108_0_1" index="1" allow="private emergency authority army vip passenger hov taxi bus coach delivery truck trailer motorcycle evehicle custom1 custom2" speed="31.29" length="0.40" shape="2478.18,9626.42 2478.36,9626.40 2478.48,9626.39 2478.60,9626.39 2478.78,9626.40"/>
    </edge>
    <edge id=":1430926678_0" function="internal">
        <lane id=":1430926678_0_0" index="0" allow="private emergency authority army vip passenger hov taxi bus coach delivery truck trailer motorcycle evehicle custom1 custom2" speed="31.29" length="0.29" shape="3097.64,9428.99 3097.90,9428.88"/>
    </edge>
    <edge id=":1504568066_0" function="internal">
        <lane id=":1504568066_0_0" index="0" disallow="pedestrian bicycle tram rail_urban rail rail_electric rail_fast ship" speed="26.82" length="0.51" shape="11986.76,1229.34 11986.75,1229.39 11986.74,1229.42 11986.72,1229.45 11986.70,1229.50"/>
        <lane id=":1504568066_0_1" index="1" disallow="pedestrian bicycle tram rail_urban rail rail_electric rail_fast ship" speed="26.82" length="0.51" shape="11989.79,1230.38 11989.74,1230.52 11989.71,1230.62 11989.67,1230.71 11989.60,1230.85"/>
        <lane id=":1504568066_0_2" index="2" disallow="pedestrian bicycle tram rail_urban rail rail_electric rail_fast ship" speed="26.82" length="0.51" shape="11992.82,1231.42 11992.74,1231.65 11992.68,1231.81 11992.61,1231.97 11992.50,1232.20"/>
    </edge>
    <edge id=":1535982286_0" function="internal">
        <lane id=":1535982286_0_0" index="0" allow="private emergency authority army vip passenger hov taxi bus coach delivery truck trailer motorcycle evehicle custom1 custom2" speed="31.29" length="0.30" shape="1906.35,7744.36 1906.50,7744.61"/>
        <lane id=":1535982286_0_1" index="1" allow="private emergency authority army vip passenger hov taxi bus coach delivery truck trailer motorcycle evehicle custom1 custom2" speed="31.29" length="0.30" shape="1909.06,7742.66 1909.22,7742.92"/>
        <lane id=":1535982286_0_2" index="2" allow="private emergency authority army vip passenger hov taxi bus coach delivery truck trailer motorcycle evehicle custom1 custom2" speed="31.29" length="0.30" shape="1911.78,7740.97 1911.93,7741.22"/>
    </edge>
    <edge id=":1535982330_0" function="internal">
        <lane id=":1535982330_0_0" index="0" allow="private emergency authority army vip passenger hov taxi bus coach delivery truck trailer motorcycle evehicle custom1 custom2" speed="31.29" length="0.30" shape="1925.19,7730.78 1925.03,7730.52"/>
        <lane id=":1535982330_0_1" index="1" allow="private emergency authority army vip passenger hov taxi bus coach delivery truck trailer motorcycle evehicle custom1 custom2" speed="31.29" length="0.30" shape="1922.49,7732.50 1922.33,7732.24"/>
        <lane id=":1535982330_0_2" index="2" allow="private emergency authority army vip passenger hov taxi bus coach delivery truck trailer motorcycle evehicle custom1 custom2" speed="31.29" length="0.30" shape="1919.79,7734.21 1919.63,7733.97"/>
    </edge>
    <edge id=":1881111-AddedOnRampNode_0" function="internal">
        <lane id=":1881111-AddedOnRampNode_0_0" index="0" allow="private emergency authority army vip passenger hov taxi bus coach delivery truck trailer motorcycle evehicle custom1 custom2" speed="31.29" length="8.00" shape="11568.88,2012.43 11564.32,2019.00"/>