<additional>
    <e1Detector id="104359041_0_0m" lane="104359041_0" pos="0" file="NUL"/>
    <e1Detector id="104359041_1_0m" lane="104359041_1" pos="0" file="NUL"/>
    <e1Detector id="104359041_2_0m" lane="104359041_2" pos="0" file="NUL"/>
    <e1Detector id="104359041_3_0m" lane="104359041_3" pos="0" file="NUL"/>
    <e1Detector id="104359041_0_100m" lane="104359041_0" pos="100" file="NUL"/>
    <e1Detector id="104359041_1_100m" lane="104359041_1" pos="100" file="NUL"/>
    <e1Detector id="104359041_2_100m" lane="104359041_2" pos="100" file="NUL"/>
    <e1Detector id="104359041_3_100m" lane="104359041_3" pos="100" file="NUL"/>
    <e1Detector id="104359041_0_200m" lane="104359041_0" pos="200" file="NUL"/>
    <e1Detector id="104359041_1_200m" lane="104359041_1" pos="200" file="NUL"/>
    <e1Detector id="104359041_2_200m" lane="104359041_2" pos="200" file="NUL"/>
    <e1Detector id="104359041_3_200m" lane="104359041_3" pos="200" file="NUL"/>
    <e1Detector id="104359041_0_300m" lane="104359041_0" pos="300" file="NUL"/>
    <e1Detector id="104359041_1_300m" lane="104359041_1" pos="300" file="NUL"/>
    <e1Detector id="104359041_2_300m" lane="104359041_2" pos="300" file="NUL"/>
    <e1Detector id="104359041_3_300m" lane="104359041_3" pos="300" file="NUL"/>
    <e1Detector id="104359041_0_400m" lane="104359041_0" pos="400" file="NUL"/>
    <e1Detector id="104359041_1_400m" lane="104359041_1" pos="400" file="NUL"/>
    <e1Detector id="104359041_2_400m" lane="104359041_2" pos="400" file="NUL"/>
    <e1Detector id="104359041_3_400m" lane="104359041_3" pos="400" file="NUL"/>
    <e1Detector id="104359041_0_500m" lane="104359041_0" pos="500" file="NUL"/>
    <e1Detector id="104359041_1_500m" lane="104359041_1" pos="500" file="NUL"/>
    <e1Detector id="104359041_2_500m" lane="104359041_2" pos="500" file="NUL"/>
    <e1Detector id="104359041_3_500m" lane="104359041_3" pos="500" file="NUL"/>
    <e1Detector id="104359041_0_600m" lane="104359041_0" pos="600" file="NUL"/>
    <e1Detector id="104359041_1_600m" lane="104359041_1" pos="600" file="NUL"/>
    <e1Detector id="104359041_2_600m" lane="104359041_2" pos="600" file="NUL"/>
    <e1Detector id="104359041_3_600m" lane="104359041_3" pos="600" file="NUL"/>
    <e1Detector id="104359041_0_700m" lane="104359041_0" pos="700" file="NUL"/>
    <e1Detector id="104359041_1_700m" lane="104359041_1" pos="700" file="NUL"/>
    <e1Detector id="104359041_2_700m" lane="104359041_2" pos="700" file="NUL"/>
    <e1Detector id="104359041_3_700m" lane="104359041_3" pos="700" file="NUL"/>
    <e1Detector id="104359041_0_800m" lane="104359041_0" pos="800" file="NUL"/>
    <e1Detector id="104359041_1_800m" lane="104359041_1" pos="800" file="NUL"/>
    <e1Detector id="104359041_2_800m" lane="104359041_2" pos="800" file="NUL"/>
    <e1Detector id="104359041_3_800m" lane="104359041_3" pos="800" file="NUL"/>
    <e1Detector id="104359041_0_900m" lane="104359041_0" pos="900" file="NUL"/>
    <e1Detector id="104359041_1_900m" lane="104359041_1" pos="900" file="NUL"/>
    <e1Detector id="104359041_2_900m" lane="104359041_2" pos="900" file="NUL"/>
    <e1Detector id="104359041_3_900m" lane="104359041_3" pos="900" file="NUL"/>
    <e1Detector id="104359041_0_1000m" lane="104359041_0" pos="1000" file="NUL"/>
    <e1Detector id="104359041_1_1000m" lane="104359041_1" pos="1000" file="NUL"/>
    <e1Detector id="104359041_2_1000m" lane="104359041_2" pos="1000" file="NUL"/>
    <e1Detector id="104359041_3_1000m" lane="104359041_3" pos="1000" file="NUL"/>
    <e1Detector id="104359041_0_1100m" lane="104359041_0" pos="1100" file="NUL"/>
    <e1Detector id="104359041_1_1100m" lane="104359041_1" pos="1100" file="NUL"/>
    <e1Detector id="104359041_2_1100m" lane="104359041_2" pos="1100" file="NUL"/>
    <e1Detector id="104359041_3_1100m" lane="104359041_3" pos="1100" file="NUL"/>
    <e1Detector id="104359041_0_1200m" lane="104359041_0" pos="1200" file="NUL"/>
    <e1Detector id="104359041_1_1200m" lane="104359041_1" pos="1200" file="NUL"/>
    <e1Detector id="104359041_2_1200m" lane="104359041_2" pos="1200" file="NUL"/>
    <e1Detector id="104359041_3_1200m" lane="104359041_3" pos="1200" file="NUL"/>
    <e1Detector id="104359041_0_1300m" lane="104359041_0" pos="1300" file="NUL"/>
    <e1Detector id="104359041_1_1300m" lane="104359041_1" pos="1300" file="NUL"/>
    <e1Detector id="104359041_2_1300m" lane="104359041_2" pos="1300" file="NUL"/>
    <e1Detector id="104359041_3_1300m" lane="104359041_3" pos="1300" file="NUL"/>
    <e1Detector id="104359041_0_1400m" lane="104359041_0" pos="1400" file="NUL"/>
    <e1Detector id="104359041_1_1400m" lane="104359041_1" pos="1400" file="NUL"/>
    <e1Detector id="104359041_2_1400m" lane="104359041_2" pos="1400" file="NUL"/>
    <e1Detector id="104359041_3_1400m" lane="104359041_3" pos="1400" file="NUL"/>
    <e1Detector id="104359041_0_1500m" lane="104359041_0" pos="1500" file="NUL"/>
    <e1Detector id="104359041_1_1500m" lane="104359041_1" pos="1500" file="NUL"/>
    <e1Detector id="104359041_2_1500m" lane="104359041_2" pos="1500" file="NUL"/>
    <e1Detector id="104359041_3_1500m" lane="104359041_3" pos="1500" file="NUL"/>
    <e1Detector id="104359041_0_1600m" lane="104359041_0" pos="1600" file="NUL"/>
    <e1Detector id="104359041_1_1600m" lane="104359041_1" pos="1600" file="NUL"/>
    <e1Detector id="104359041_2_1600m" lane="104359041_2" pos="1600" file="NUL"/>
    <e1Detector id="104359041_3_1600m" lane="104359041_3" pos="1600" file="NUL"/>
    <e1Detector id="104359041_0_1700m" lane="104359041_0" pos="1700" file="NUL"/>
    <e1Detector id="104359041_1_1700m" lane="104359041_1" pos="1700" file="NUL"/>
    <e1Detector id="104359041_2_1700m" lane="104359041_2" pos="1700" file="NUL"/>
    <e1Detector id="104359041_3_1700m" lane="104359041_3" pos="1700" file="NUL"/>
    <e1Detector id="104359041_0_1800m" lane="104359041_0" pos="1800" file="NUL"/>
    <e1Detector id="104359041_1_1800m" lane="104359041_1" pos="1800" file="NUL"/>
    <e1Detector id="104359041_2_1800m" lane="104359041_2" pos="1800" file="NUL"/>
    <e1Detector id="104359041_3_1800m" lane="104359041_3" pos="1800" file="NUL"/>
    <e1Detector id="104359041_0_1900m" lane="104359041_0" pos="1900" file="NUL"/>
    <e1Detector id="104359041_1_1900m" lane="104359041_1" pos="1900" file="NUL"/>
    <e1Detector id="104359041_2_1900m" lane="104359041_2" pos="1900" file="NUL"/>
    <e1Detector id="104359041_3_1900m" lane="104359041_3" pos="1900" file="NUL"/>
    <e1Detector id="104359041_0_2000m" lane="104359041_0" pos="2000" file="NUL"/>
    <e1Detector id="104359041_1_2000m" lane="104359041_1" pos="2000" file="NUL"/>
    <e1Detector id="104359041_2_2000m" lane="104359041_2" pos="2000" file="NUL"/>
    <e1Detector id="104359041_3_2000m" lane="104359041_3" pos="2000" file="NUL"/>
    <e1Detector id="104359041_0_2100m" lane="104359041_0" pos="2100" file="NUL"/>
    <e1Detector id="104359041_1_2100m" lane="104359041_1" pos="2100" file="NUL"/>
    <e1Detector id="104359041_2_2100m" lane="104359041_2" pos="2100" file="NUL"/>
    <e1Detector id="104359041_3_2100m" lane="104359041_3" pos="2100" file="NUL"/>
    <e1Detector id="104359041_0_2200m" lane="104359041_0" pos="2200" file="NUL"/>
    <e1Detector id="104359041_1_2200m" lane="104359041_1" pos="2200" file="NUL"/>
    <e1Detector id="104359041_2_2200m" lane="104359041_2" pos="2200" file="NUL"/>
    <e1Detector id="104359041_3_2200m" lane="104359041_3" pos="2200" file="NUL"/>
    <e1Detector id="104359041_0_2300m" lane="104359041_0" pos="2300" file="NUL"/>
    <e1Detector id="104359041_1_2300m" lane="104359041_1" pos="2300" file="NUL"/>
    <e1Detector id="104359041_2_2300m" lane="104359041_2" pos="2300" file="NUL"/>
    <e1Detector id="104359041_3_2300m" lane="104359041_3" pos="2300" file="NUL"/>
    <e1Detector id="104359041_0_2400m" lane="104359041_0" pos="2400" file="NUL"/>
    <e1Detector id="104359041_1_2400m" lane="104359041_1" pos="2400" file="NUL"/>
    <e1Detector id="104359041_2_2400m" lane="104359041_2" pos="2400" file="NUL"/>
    <e1Detector id="104359041_3_2400m" lane="104359041_3" pos="2400" file="NUL"/>
    <e1Detector id="104359041_0_2500m" lane="104359041_0" pos="2500" file="NUL"/>
    <e1Detector id="104359041_1_2500m" lane="104359041_1" pos="2500" file="NUL"/>
    <e1Detector id="104359041_2_2500m" lane="104359041_2" pos="2500" file="NUL"/>
    <e1Detector id="104359041_3_2500m" lane="104359041_3" pos="2500" file="NUL"/>
    <e1Detector id="104359041_0_2600m" lane="104359041_0" pos="2600" file="NUL"/>
    <e1Detector id="104359041_1_2600m" lane="104359041_1" pos="2600" file="NUL"/>
    <e1Detector id="104359041_2_2600m" lane="104359041_2" pos="2600" file="NUL"/>
    <e1Detector id="104359041_3_2600m" lane="104359041_3" pos="2600" file="NUL"/>
    <e1Detector id="104359041_0_2700m" lane="104359041_0" pos="2700" file="NUL"/>
    <e1Detector id="104359041_1_2700m" lane="104359041_1" pos="2700" file="NUL"/>
    <e1Detector id="104359041_2_2700m" lane="104359041_2" pos="2700" file="NUL"/>
    <e1Detector id="104359041_3_2700m" lane="104359041_3" pos="2700" file="NUL"/>
    <e1Detector id="104359041_0_2800m" lane="104359041_0" pos="2800" file="NUL"/>
    <e1Detector id="104359041_1_2800m" lane="104359041_1" pos="2800" file="NUL"/>
    <e1Detector id="104359041_2_2800m" lane="104359041_2" pos="2800" file="NUL"/>
    <e1Detector id="104359041_3_2800m" lane="104359041_3" pos="2800" file="NUL"/>
    <e1Detector id="104359041_0_2900m" lane="104359041_0" pos="2900" file="NUL"/>
    <e1Detector id="104359041_1_2900m" lane="104359041_1" pos="2900" file="NUL"/>
    <e1Detector id="104359041_2_2900m" lane="104359041_2" pos="2900" file="NUL"/>
    <e1Detector id="104359041_3_2900m" lane="104359041_3" pos="2900" file="NUL"/>
    <e1Detector id="104359041_0_3000m" lane="104359041_0" pos="3000" file="NUL"/>
    <e1Detector id="104359041_1_3000m" lane="104359041_1" pos="3000" file="NUL"/>
    <e1Detector id="104359041_2_3000m" lane="104359041_2" pos="3000" file="NUL"/>
    <e1Detector id="104359041_3_3000m" lane="104359041_3" pos="3000" file="NUL"/>
    <e1Detector id="104359041_0_3100m" lane="104359041_0" pos="3100" file="NUL"/>
    <e1Detector id="104359041_1_3100m" lane="104359041_1" pos="3100" file="NUL"/>
    <e1Detector id="104359041_2_3100m" lane="104359041_2" pos="3100" file="NUL"/>
    <e1Detector id="104359041_3_3100m" lane="104359041_3" pos="3100" file="NUL"/>
    <e1Detector id="104359041_0_3200m" lane="104359041_0" pos="3200" file="NUL"/>
    <e1Detector id="104359041_1_3200m" lane="104359041_1" pos="3200" file="NUL"/>
    <e1Detector id="104359041_2_3200m" lane="104359041_2" pos="3200" file="NUL"/>
    <e1Detector id="104359041_3_3200m" lane="104359041_3" pos="3200" file="NUL"/>
    <e1Detector id="104359041_0_3300m" lane="104359041_0" pos="3300" file="NUL"/>
    <e1Detector id="104359041_1_3300m" lane="104359041_1" pos="3300" file="NUL"/>
    <e1Detector id="104359041_2_3300m" lane="104359041_2" pos="3300" file="NUL"/>
    <e1Detector id="104359041_3_3300m" lane="104359041_3" pos="3300" file="NUL"/>
    <e1Detector id="104359041_0_3400m" lane="104359041_0" pos="3400" file="NUL"/>
    <e1Detector id="104359041_1_3400m" lane="104359041_1" pos="3400" file="NUL"/>
    <e1Detector id="104359041_2_3400m" lane="104359041_2" pos="3400" file="NUL"/>
    <e1Detector id="104359041_3_3400m" lane="104359041_3" pos="3400" file="NUL"/>
    <e1Detector id="104359041_0_3500m" lane="104359041_0" pos="3500" file="NUL"/>
    <e1Detector id="104359041_1_3500m" lane="104359041_1" pos="3500" file="NUL"/>
    <e1Detector id="104359041_2_3500m" lane="104359041_2" pos="3500" file="NUL"/>
    <e1Detector id="104359041_3_3500m" lane="104359041_3" pos="3500" file="NUL"/>
    <e1Detector id="104359041_0_3600m" lane="104359041_0" pos="3600" file="NUL"/>
    <e1Detector id="104359041_1_3600m" lane="104359041_1" pos="3600" file="NUL"/>
    <e1Detector id="104359041_2_3600m" lane="104359041_2" pos="3600" file="NUL"/>
    <e1Detector id="104359041_3_3600m" lane="104359041_3" pos="3600" file="NUL"/>
    <e1Detector id="104359041_0_3700m" lane="104359041_0" pos="3700" file="NUL"/>
    <e1Detector id="104359041_1_3700m" lane="104359041_1" pos="3700" file="NUL"/>
    <e1Detector id="104359041_2_3700m" lane="104359041_2" pos="3700" file="NUL"/>
    <e1Detector id="104359041_3_3700m" lane="104359041_3" pos="3700" file="NUL"/>
    <e1Detector id="104359041_0_3800m" lane="104359041_0" pos="3800" file="NUL"/>
    <e1Detector id="104359041_1_3800m" lane="104359041_1" pos="3800" file="NUL"/>
    <e1Detector id="104359041_2_3800m" lane="104359041_2" pos="3800" file="NUL"/>
    <e1Detector id="104359041_3_3800m" lane="104359041_3" pos="3800" file="NUL"/>
    <e1Detector id="104359041_0_3900m" lane="104359041_0" pos="3900" file="NUL"/>
    <e1Detector id="104359041_1_3900m" lane="104359041_1" pos="3900" file="NUL"/>
    <e1Detector id="104359041_2_3900m" lane="104359041_2" pos="3900" file="NUL"/>
    <e1Detector id="104359041_3_3900m" lane="104359041_3" pos="3900" file="NUL"/>
    <e1Detector id="104359041_0_4000m" lane="104359041_0" pos="4000" file="NUL"/>
    <e1Detector id="104359041_1_4000m" lane="104359041_1" pos="4000" file="NUL"/>
    <e1Detector id="104359041_2_4000m" lane="104359041_2" pos="4000" file="NUL"/>
    <e1Detector id="104359041_3_4000m" lane="104359041_3" pos="4000" file="NUL"/>
    <e1Detector id="104359041_0_4100m" lane="104359041_0" pos="4100" file="NUL"/>
    <e1Detector id="104359041_1_4100m" lane="104359041_1" pos="4100" file="NUL"/>
    <e1Detector id="104359041_2_4100m" lane="104359041_2" pos="4100" file="NUL"/>
    <e1Detector id="104359041_3_4100m" lane="104359041_3" pos="4100" file="NUL"/>
    <e1Detector id="104359041_0_4200m" lane="104359041_0" pos="4200" file="NUL"/>
    <e1Detector id="104359041_1_4200m" lane="104359041_1" pos="4200" file="NUL"/>
    <e1Detector id="104359041_2_4200m" lane="104359041_2" pos="4200" file="NUL"/>
    <e1Detector id="104359041_3_4200m" lane="104359041_3" pos="4200" file="NUL"/>
    <e1Detector id="104359041_0_4300m" lane="104359041_0" pos="4300" file="NUL"/>
    <e1Detector id="104359041_1_4300m" lane="104359041_1" pos="4300" file="NUL"/>
    <e1Detector id="104359041_2_4300m" lane="104359041_2" pos="4300" file="NUL"/>
    <e1Detector id="104359041_3_4300m" lane="104359041_3" pos="4300" file="NUL"/>
    <e1Detector id="104359041_0_4400m" lane="104359041_0" pos="4400" file="NUL"/>
    <e1Detector id="104359041_1_4400m" lane="104359041_1" pos="4400" file="NUL"/>
    <e1Detector id="104359041_2_4400m" lane="104359041_2" pos="4400" file="NUL"/>
    <e1Detector id="104359041_3_4400m" lane="104359041_3" pos="4400" file="NUL"/>
    <e1Detector id="104359041_0_4500m" lane="104359041_0" pos="4500" file="NUL"/>
    <e1Detector id="104359041_1_4500m" lane="104359041_1" pos="4500" file="NUL"/>
    <e1Detector id="104359041_2_4500m" lane="104359041_2" pos="4500" file="NUL"/>
    <e1Detector id="104359041_3_4500m" lane="104359041_3" pos="4500" file="NUL"/>
    <e1Detector id="104359041_0_4600m" lane="104359041_0" pos="4600" file="NUL"/>
    <e1Detector id="104359041_1_4600m" lane="104359041_1" pos="4600" file="NUL"/>
    <e1Detector id="104359041_2_4600m" lane="104359041_2" pos="4600" file="NUL"/>
    <e1Detector id="104359041_3_4600m" lane="104359041_3" pos="4600" file="NUL"/>
    <e1Detector id="104359041_0_4700m" lane="104359041_0" pos="4700" file="NUL"/>
    <e1Detector id="104359041_1_4700m" lane="104359041_1" pos="4700" file="NUL"/>
    <e1Detector id="104359041_2_4700m" lane="104359041_2" pos="4700" file="NUL"/>
    <e1Detector id="104359041_3_4700m" lane="104359041_3" pos="4700" file="NUL"/>
    <e1Detector id="104359041_0_4800m" lane="104359041_0" pos="4800" file="NUL"/>
    <e1Detector id="104359041_1_4800m" lane="104359041_1" pos="4800" file="NUL"/>
    <e1Detector id="104359041_2_4800m" lane="104359041_2" pos="4800" file="NUL"/>
    <e1Detector id="104359041_3_4800m" lane="104359041_3" pos="4800" file="NUL"/>
    <e1Detector id="104359041_0_4900m" lane="104359041_0" pos="4900" file="NUL"/>
    <e1Detector id="104359041_1_4900m" lane="104359041_1" pos="4900" file="NUL"/>
    <e1Detector id="104359041_2_4900m" lane="104359041_2" pos="4900" file="NUL"/>
    <e1Detector id="104359041_3_4900m" lane="104359041_3" pos="4900" file="NUL"/>
    <e1Detector id="104359041_0_5000m" lane="104359041_0" pos="5000" file="NUL"/>
    <e1Detector id="104359041_1_5000m" lane="104359041_1" pos="5000" file="NUL"/>
    <e1Detector id="104359041_2_5000m" lane="104359041_2" pos="5000" file="NUL"/>
    <e1Detector id="104359041_3_5000m" lane="104359041_3" pos="5000" file="NUL"/>
    <e1Detector id="104359041_0_5100m" lane="104359041_0" pos="5100" file="NUL"/>
    <e1Detector id="104359041_1_5100m" lane="104359041_1" pos="5100" file="NUL"/>
    <e1Detector id="104359041_2_5100m" lane="104359041_2" pos="5100" file="NUL"/>
    <e1Detector id="104359041_3_5100m" lane="104359041_3" pos="5100" file="NUL"/>
    <e1Detector id="104359041_0_5200m" lane="104359041_0" pos="5200" file="NUL"/>
    <e1Detector id="104359041_1_5200m" lane="104359041_1" pos="5200" file="NUL"/>
    <e1Detector id="104359041_2_5200m" lane="104359041_2" pos="5200" file="NUL"/>
    <e1Detector id="104359041_3_5200m" lane="104359041_3" pos="5200" file="NUL"/>
    <e1Detector id="104359041_0_5300m" lane="104359041_0" pos="5300" file="NUL"/>
    <e1Detector id="104359041_1_5300m" lane="104359041_1" pos="5300" file="NUL"/>
    <e1Detector id="104359041_2_5300m" lane="104359041_2" pos="5300" file="NUL"/>
    <e1Detector id="104359041_3_5300m" lane="104359041_3" pos="5300" file="NUL"/>
    <e1Detector id="104359041_0_5400m" lane="104359041_0" pos="5400" file="NUL"/>
    <e1Detector id="104359041_1_5400m" lane="104359041_1" pos="5400" file="NUL"/>
    <e1Detector id="104359041_2_5400m" lane="104359041_2" pos="5400" file="NUL"/>
    <e1Detector id="104359041_3_5400m" lane="104359041_3" pos="5400" file="NUL"/>
    <e1Detector id="104359041_0_5500m" lane="104359041_0" pos="5500" file="NUL"/>
    <e1Detector id="104359041_1_5500m" lane="104359041_1" pos="5500" file="NUL"/>
    <e1Detector id="104359041_2_5500m" lane="104359041_2" pos="5500" file="NUL"/>
    <e1Detector id="104359041_3_5500m" lane="104359041_3" pos="5500" file="NUL"/>
    <e1Detector id="104359041_0_5600m" lane="104359041_0" pos="5600" file="NUL"/>
    <e1Detector id="104359041_1_5600m" lane="104359041_1" pos="5600" file="NUL"/>
    <e1Detector id="104359041_2_5600m" lane="104359041_2" pos="5600" file="NUL"/>
    <e1Detector id="104359041_3_5600m" lane="104359041_3" pos="5600" file="NUL"/>
    <e1Detector id="104359041_0_5700m" lane="104359041_0" pos="5700" file="NUL"/>
    <e1Detector id="104359041_1_5700m" lane="104359041_1" pos="5700" file="NUL"/>
    <e1Detector id="104359041_2_5700m" lane="104359041_2" pos="5700" file="NUL"/>
    <e1Detector id="104359041_3_5700m" lane="104359041_3" pos="5700" file="NUL"/>
    <e1Detector id="104359041_0_5800m" lane="104359041_0" pos="5800" file="NUL"/>
    <e1Detector id="104359041_1_5800m" lane="104359041_1" pos="5800" file="NUL"/>
    <e1Detector id="104359041_2_5800m" lane="104359041_2" pos="5800" file="NUL"/>
    <e1Detector id="104359041_3_5800m" lane="104359041_3" pos="5800" file="NUL"/>
    <e1Detector id="104359041_0_5900m" lane="104359041_0" pos="5900" file="NUL"/>
    <e1Detector id="104359041_1_5900m" lane="104359041_1" pos="5900" file="NUL"/>
    <e1Detector id="104359041_2_5900m" lane="104359041_2" pos="5900" file="NUL"/>
    <e1Detector id="104359041_3_5900m" lane="104359041_3" pos="5900" file="NUL"/>
    <e1Detector id="104359041_0_6000m" lane="104359041_0" pos="6000" file="NUL"/>
    <e1Detector id="104359041_1_6000m" lane="104359041_1" pos="6000" file="NUL"/>
    <e1Detector id="104359041_2_6000m" lane="104359041_2" pos="6000" file="NUL"/>
    <e1Detector id="104359041_3_6000m" lane="104359041_3" pos="6000" file="NUL"/>
    <e1Detector id="104359041_0_6100m" lane="104359041_0" pos="6100" file="NUL"/>
    <e1Detector id="104359041_1_6100m" lane="104359041_1" pos="6100" file="NUL"/>
    <e1Detector id="104359041_2_6100m" lane="104359041_2" pos="6100" file="NUL"/>
    <e1Detector id="104359041_3_6100m" lane="104359041_3" pos="6100" file="NUL"/>
    <e1Detector id="104359041_0_6200m" lane="104359041_0" pos="6200" file="NUL"/>
    <e1Detector id="104359041_1_6200m" lane="104359041_1" pos="6200" file="NUL"/>
    <e1Detector id="104359041_2_6200m" lane="104359041_2" pos="6200" file="NUL"/>
    <e1Detector id="104359041_3_6200m" lane="104359041_3" pos="6200" file="NUL"/>
    <e1Detector id="104359041_0_6300m" lane="104359041_0" pos="6300" file="NUL"/>
    <e1Detector id="104359041_1_6300m" lane="104359041_1" pos="6300" file="NUL"/>
    <e1Detector id="104359041_2_6300m" lane="104359041_2" pos="6300" file="NUL"/>
    <e1Detector id="104359041_3_6300m" lane="104359041_3" pos="6300" file="NUL"/>
    <e1Detector id="104359041_0_6400m" lane="104359041_0" pos="6400" file="NUL"/>
    <e1Detector id="104359041_1_6400m" lane="104359041_1" pos="6400" file="NUL"/>
    <e1Detector id="104359041_2_6400m" lane="104359041_2" pos="6400" file="NUL"/>
    <e1Detector id="104359041_3_6400m" lane="104359041_3" pos="6400" file="NUL"/>
    <e1Detector id="104359041_0_6500m" lane="104359041_0" pos="6500" file="NUL"/>
    <e1Detector id="104359041_1_6500m" lane="104359041_1" pos="6500" file="NUL"/>
    <e1Detector id="104359041_2_6500m" lane="104359041_2" pos="6500" file="NUL"/>
    <e1Detector id="104359041_3_6500m" lane="104359041_3" pos="6500" file="NUL"/>
    <e1Detector id="104359041_0_6600m" lane="104359041_0" pos="6600" file="NUL"/>
    <e1Detector id="104359041_1_6600m" lane="104359041_1" pos="6600" file="NUL"/>
    <e1Detector id="104359041_2_6600m" lane="104359041_2" pos="6600" file="NUL"/>
    <e1Detector id="104359041_3_6600m" lane="104359041_3" pos="6600" file="NUL"/>
    <e1Detector id="104359041_0_6700m" lane="104359041_0" pos="6700" file="NUL"/>
    <e1Detector id="104359041_1_6700m" lane="104359041_1" pos="6700" file="NUL"/>
    <e1Detector id="104359041_2_6700m" lane="104359041_2" pos="6700" file="NUL"/>
    <e1Detector id="104359041_3_6700m" lane="104359041_3" pos="6700" file="NUL"/>
    <e1Detector id="104359041_0_6800m" lane="104359041_0" pos="6800" file="NUL"/>
    <e1Detector id="104359041_1_6800m" lane="104359041_1" pos="6800" file="NUL"/>
    <e1Detector id="104359041_2_6800m" lane="104359041_2" pos="6800" file="NUL"/>
    <e1Detector id="104359041_3_6800m" lane="104359041_3" pos="6800" file="NUL"/>
    <e1Detector id="104359041_0_6900m" lane="104359041_0" pos="6900" file="NUL"/>
    <e1Detector id="104359041_1_6900m" lane="104359041_1" pos="6900" file="NUL"/>
    <e1Detector id="104359041_2_6900m" lane="104359041_2" pos="6900" file="NUL"/>
    <e1Detector id="104359041_3_6900m" lane="104359041_3" pos="6900" file="NUL"/>
    <e1Detector id="104359041_0_7000m" lane="104359041_0" pos="7000" file="NUL"/>
    <e1Detector id="104359041_1_7000m" lane="104359041_1" pos="7000" file="NUL"/>
    <e1Detector id="104359041_2_7000m" lane="104359041_2" pos="7000" file="NUL"/>
    <e1Detector id="104359041_3_7000m" lane="104359041_3" pos="7000" file="NUL"/>
    <e1Detector id="104359041_0_7100m" lane="104359041_0" pos="7100" file="NUL"/>
    <e1Detector id="104359041_1_7100m" lane="104359041_1" pos="7100" file="NUL"/>
    <e1Detector id="104359041_2_7100m" lane="104359041_2" pos="7100" file="NUL"/>
    <e1Detector id="104359041_3_7100m" lane="104359041_3" pos="7100" file="NUL"/>
    <e1Detector id="104359041_0_7200m" lane="104359041_0" pos="7200" file="NUL"/>
    <e1Detector id="104359041_1_7200m" lane="104359041_1" pos="7200" file="NUL"/>
    <e1Detector id="104359041_2_7200m" lane="104359041_2" pos="7200" file="NUL"/>
    <e1Detector id="104359041_3_7200m" lane="104359041_3" pos="7200" file="NUL"/>
    <e1Detector id="104359041_0_7300m" lane="104359041_0" pos="7300" file="NUL"/>
    <e1Detector id="104359041_1_7300m" lane="104359041_1" pos="7300" file="NUL"/>
    <e1Detector id="104359041_2_7300m" lane="104359041_2" pos="7300" file="NUL"/>
    <e1Detector id="104359041_3_7300m" lane="104359041_3" pos="7300" file="NUL"/>
    <e1Detector id="104359041_0_7400m" lane="104359041_0" pos="7400" file="NUL"/>
    <e1Detector id="104359041_1_7400m" lane="104359041_1" pos="7400" file="NUL"/>
    <e1Detector id="104359041_2_7400m" lane="104359041_2" pos="7400" file="NUL"/>
    <e1Detector id="104359041_3_7400m" lane="104359041_3" pos="7400" file="NUL"/>
    <e1Detector id="104359041_0_7500m" lane="104359041_0" pos="7500" file="NUL"/>
    <e1Detector id="104359041_1_7500m" lane="104359041_1" pos="7500" file="NUL"/>
    <e1Detector id="104359041_2_7500m" lane="104359041_2" pos="7500" file="NUL"/>
    <e1Detector id="104359041_3_7500m" lane="104359041_3" pos="7500" file="NUL"/>
    <e1Detector id="104359041_0_7600m" lane="104359041_0" pos="7600" file="NUL"/>
    <e1Detector id="104359041_1_7600m" lane="104359041_1" pos="7600" file="NUL"/>
    <e1Detector id="104359041_2_7600m" lane="104359041_2" pos="7600" file="NUL"/>
    <e1Detector id="104359041_3_7600m" lane="104359041_3" pos="7600" file="NUL"/>
    <e1Detector id="104359041_0_7700m" lane="104359041_0" pos="7700" file="NUL"/>
    <e1Detector id="104359041_1_7700m" lane="104359041_1" pos="7700" file="NUL"/>
    <e1Detector id="104359041_2_7700m" lane="104359041_2" pos="7700" file="NUL"/>
    <e1Detector id="104359041_3_7700m" lane="104359041_3" pos="7700" file="NUL"/>
    <e1Detector id="104359041_0_7800m" lane="104359041_0" pos="7800" file="NUL"/>
    <e1Detector id="104359041_1_7800m" lane="104359041_1" pos="7800" file="NUL"/>
    <e1Detector id="104359041_2_7800m" lane="104359041_2" pos="7800" file="NUL"/>
    <e1Detector id="104359041_3_7800m" lane="104359041_3" pos="7800" file="NUL"/>
    <e1Detector id="104359041_0_7900m" lane="104359041_0" pos="7900" file="NUL"/>
    <e1Detector id="104359041_1_7900m" lane="104359041_1" pos="7900" file="NUL"/>
    <e1Detector id="104359041_2_7900m" lane="104359041_2" pos="7900" file="NUL"/>
    <e1Detector id="104359041_3_7900m" lane="104359041_3" pos="7900" file="NUL"/>
    <e1Detector id="104359041_0_8000m" lane="104359041_0" pos="8000" file="NUL"/>
    <e1Detector id="104359041_1_8000m" lane="104359041_1" pos="8000" file="NUL"/>
    <e1Detector id="104359041_2_8000m" lane="104359041_2" pos="8000" file="NUL"/>
    <e1Detector id="104359041_3_8000m" lane="104359041_3" pos="8000" file="NUL"/>
    <e1Detector id="104359041_0_8100m" lane="104359041_0" pos="8100" file="NUL"/>
    <e1Detector id="104359041_1_8100m" lane="104359041_1" pos="8100" file="NUL"/>
    <e1Detector id="104359041_2_8100m" lane="104359041_2" pos="8100" file="NUL"/>
    <e1Detector id="104359041_3_8100m" lane="104359041_3" pos="8100" file="NUL"/>
    <e1Detector id="104359041_0_8200m" lane="104359041_0" pos="8200" file="NUL"/>
    <e1Detector id="104359041_1_8200m" lane="104359041_1" pos="8200" file="NUL"/>
    <e1Detector id="104359041_2_8200m" lane="104359041_2" pos="8200" file="NUL"/>
    <e1Detector id="104359041_3_8200m" lane="104359041_3" pos="8200" file="NUL"/>
    <e1Detector id="104359041_0_8300m" lane="104359041_0" pos="8300" file="NUL"/>
    <e1Detector id="104359041_1_8300m" lane="104359041_1" pos="8300" file="NUL"/>
    <e1Detector id="104359041_2_8300m" lane="104359041_2" pos="8300" file="NUL"/>
    <e1Detector id="104359041_3_8300m" lane="104359041_3" pos="8300" file="NUL"/>
    <e1Detector id="104359041_0_8400m" lane="104359041_0" pos="8400" file="NUL"/>
    <e1Detector id="104359041_1_8400m" lane="104359041_1" pos="8400" file="NUL"/>
    <e1Detector id="104359041_2_8400m" lane="104359041_2" pos="8400" file="NUL"/>
    <e1Detector id="104359041_3_8400m" lane="104359041_3" pos="8400" file="NUL"/>
    <e1Detector id="104359041_0_8500m" lane="104359041_0" pos="8500" file="NUL"/>
    <e1Detector id="104359041_1_8500m" lane="104359041_1" pos="8500" file="NUL"/>
    <e1Detector id="104359041_2_8500m" lane="104359041_2" pos="8500" file="NUL"/>
    <e1Detector id="104359041_3_8500m" lane="104359041_3" pos="8500" file="NUL"/>
    <e1Detector id="104359041_0_8600m" lane="104359041_0" pos="8600" file="NUL"/>
    <e1Detector id="104359041_1_8600m" lane="104359041_1" pos="8600" file="NUL"/>
    <e1Detector id="104359041_2_8600m" lane="104359041_2" pos="8600" file="NUL"/>
    <e1Detector id="104359041_3_8600m" lane="104359041_3" pos="8600" file="NUL"/>
    <e1Detector id="104359041_0_8700m" lane="104359041_0" pos="8700" file="NUL"/>
    <e1Detector id="104359041_1_8700m" lane="104359041_1" pos="8700" file="NUL"/>
    <e1Detector id="104359041_2_8700m" lane="104359041_2" pos="8700" file="NUL"/>
    <e1Detector id="104359041_3_8700m" lane="104359041_3" pos="8700" file="NUL"/>
    <e1Detector id="104359041_0_8800m" lane="104359041_0" pos="8800" file="NUL"/>
    <e1Detector id="104359041_1_8800m" lane="104359041_1" pos="8800" file="NUL"/>
    <e1Detector id="104359041_2_8800m" lane="104359041_2" pos="8800" file="NUL"/>
    <e1Detector id="104359041_3_8800m" lane="104359041_3" pos="8800" file="NUL"/>
    <e1Detector id="104359041_0_8900m" lane="104359041_0" pos="8900" file="NUL"/>
    <e1Detector id="104359041_1_8900m" lane="104359041_1" pos="8900" file="NUL"/>
    <e1Detector id="104359041_2_8900m" lane="104359041_2" pos="8900" file="NUL"/>
    <e1Detector id="104359041_3_8900m" lane="104359041_3" pos="8900" file="NUL"/>
    <e1Detector id="104359041_0_9000m" lane="104359041_0" pos="9000" file="NUL"/>
    <e1Detector id="104359041_1_9000m" lane="104359041_1" pos="9000" file="NUL"/>
    <e1Detector id="104359041_2_9000m" lane="104359041_2" pos="9000" file="NUL"/>
    <e1Detector id="104359041_3_9000m" lane="104359041_3" pos="9000" file="NUL"/>
    <e1Detector id="104359041_0_9100m" lane="104359041_0" pos="9100" file="NUL"/>
    <e1Detector id="104359041_1_9100m" lane="104359041_1" pos="9100" file="NUL"/>