<additional>
    <laneAreaDetector id="E0_0_0m" lane="E0_0" pos="0" endPos="100" file="NUL"/>
    <laneAreaDetector id="E0_1_0m" lane="E0_1" pos="0" endPos="100" file="NUL"/>
    <laneAreaDetector id="E0_0_100m" lane="E0_0" pos="100" endPos="200" file="NUL"/>
    <laneAreaDetector id="E0_1_100m" lane="E0_1" pos="100" endPos="200" file="NUL"/>
    <laneAreaDetector id="E0_0_200m" lane="E0_0" pos="200" endPos="300" file="NUL"/>
    <laneAreaDetector id="E0_1_200m" lane="E0_1" pos="200" endPos="300" file="NUL"/>
    <laneAreaDetector id="E0_0_300m" lane="E0_0" pos="300" endPos="400" file="NUL"/>
    <laneAreaDetector id="E0_1_300m" lane="E0_1" pos="300" endPos="400" file="NUL"/>
    <laneAreaDetector id="E0_0_400m" lane="E0_0" pos="400" endPos="500" file="NUL"/>
    <laneAreaDetector id="E0_1_400m" lane="E0_1" pos="400" endPos="500" file="NUL"/>
    <laneAreaDetector id="E0_0_500m" lane="E0_0" pos="500" endPos="600" file="NUL"/>
    <laneAreaDetector id="E0_1_500m" lane="E0_1" pos="500" endPos="600" file="NUL"/>
    <laneAreaDetector id="E0_0_600m" lane="E0_0" pos="600" endPos="700" file="NUL"/>
    <laneAreaDetector id="E0_1_600m" lane="E0_1" pos="600" endPos="700" file="NUL"/>
    <laneAreaDetector id="E0_0_700m" lane="E0_0" pos="700" endPos="800" file="NUL"/>
    <laneAreaDetector id="E0_1_700m" lane="E0_1" pos="700" endPos="800" file="NUL"/>
    <laneAreaDetector id="E0_0_800m" lane="E0_0" pos="800" endPos="900" file="NUL"/>
    <laneAreaDetector id="E0_1_800m" lane="E0_1" pos="800" endPos="900" file="NUL"/>
    <laneAreaDetector id="E0_0_900m" lane="E0_0" pos="900" endPos="1000" file="NUL"/>
    <laneAreaDetector id="E0_1_900m" lane="E0_1" pos="900" endPos="1000" file="NUL"/>
    <laneAreaDetector id="E0_0_1000m" lane="E0_0" pos="1000" endPos="1100" file="NUL"/>
    <laneAreaDetector id="E0_1_1000m" lane="E0_1" pos="1000" endPos="1100" file="NUL"/>
    <laneAreaDetector id="E0_0_1100m" lane="E0_0" pos="1100" endPos="1200" file="NUL"/>
    <laneAreaDetector id="E0_1_1100m" lane="E0_1" pos="1100" endPos="1200" file="NUL"/>
    <laneAreaDetector id="E0_0_1200m" lane="E0_0" pos="1200" endPos="1300" file="NUL"/>
    <laneAreaDetector id="E0_1_1200m" lane="E0_1" pos="1200" endPos="1300" file="NUL"/>
    <laneAreaDetector id="E0_0_1300m" lane="E0_0" pos="1300" endPos="1400" file="NUL"/>
    <laneAreaDetector id="E0_1_1300m" lane="E0_1" pos="1300" endPos="1400" file="NUL"/>
    <laneAreaDetector id="E0_0_1400m" lane="E0_0" pos="1400" endPos="1500" file="NUL"/>
    <laneAreaDetector id="E0_1_1400m" lane="E0_1" pos="1400" endPos="1500" file="NUL"/>
    <laneAreaDetector id="E0_0_1500m" lane="E0_0" pos="1500" endPos="1600" file="NUL"/>
    <laneAreaDetector id="E0_1_1500m" lane="E0_1" pos="1500" endPos="1600" file="NUL"/>
    <laneAreaDetector id="E0_0_1600m" lane="E0_0" pos="1600" endPos="1700" file="NUL"/>
    <laneAreaDetector id="E0_1_1600m" lane="E0_1" pos="1600" endPos="1700" file="NUL"/>
    <laneAreaDetector id="E0_0_1700m" lane="E0_0" pos="1700" endPos="1800" file="NUL"/>
    <laneAreaDetector id="E0_1_1700m" lane="E0_1" pos="1700" endPos="1800" file="NUL"/>
    <laneAreaDetector id="E0_0_1800m" lane="E0_0" pos="1800" endPos="1900" file="NUL"/>
    <laneAreaDetector id="E0_1_1800m" lane="E0_1" pos="1800" endPos="1900" file="NUL"/>
    <laneAreaDetector id="E0_0_1900m" lane="E0_0" pos="1900" endPos="2000" file="NUL"/>
    <laneAreaDetector id="E0_1_1900m" lane="E0_1" pos="1900" endPos="2000" file="NUL"/>
    <laneAreaDetector id="E0_0_2000m" lane="E0_0" pos="2000" endPos="2100" file="NUL"/>
    <laneAreaDetector id="E0_1_2000m" lane="E0_1" pos="2000" endPos="2100" file="NUL"/>
    <laneAreaDetector id="E0_0_2100m" lane="E0_0" pos="2100" endPos="2200" file="NUL"/>
    <laneAreaDetector id="E0_1_2100m" lane="E0_1" pos="2100" endPos="2200" file="NUL"/>
    <laneAreaDetector id="E0_0_2200m" lane="E0_0" pos="2200" endPos="2300" file="NUL"/>
    <laneAreaDetector id="E0_1_2200m" lane="E0_1" pos="2200" endPos="2300" file="NUL"/>
    <laneAreaDetector id="E0_0_2300m" lane="E0_0" pos="2300" endPos="2400" file="NUL"/>
    <laneAreaDetector id="E0_1_2300m" lane="E0_1" pos="2300" endPos="2400" file="NUL"/>
    <laneAreaDetector id="E0_0_2400m" lane="E0_0" pos="2400" endPos="2500" file="NUL"/>
    <laneAreaDetector id="E0_1_2400m" lane="E0_1" pos="2400" endPos="2500" file="NUL"/>
    <laneAreaDetector id="E0_0_2500m" lane="E0_0" pos="2500" endPos="2600" file="NUL"/>
    <laneAreaDetector id="E0_1_2500m" lane="E0_1" pos="2500" endPos="2600" file="NUL"/>
    <laneAreaDetector id="E0_0_2600m" lane="E0_0" pos="2600" endPos="2700" file="NUL"/>
    <laneAreaDetector id="E0_1_2600m" lane="E0_1" pos="2600" endPos="2700" file="NUL"/>
    <laneAreaDetector id="E0_0_2700m" lane="E0_0" pos="2700" endPos="2800" file="NUL"/>
    <laneAreaDetector id="E0_1_2700m" lane="E0_1" pos="2700" endPos="2800" file="NUL"/>
    <laneAreaDetector id="E0_0_2800m" lane="E0_0" pos="2800" endPos="2900" file="NUL"/>
    <laneAreaDetector id="E0_1_2800m" lane="E0_1" pos="2800" endPos="2900" file="NUL"/>
    <laneAreaDetector id="E0_0_2900m" lane="E0_0" pos="2900" endPos="3000" file="NUL"/>
    <laneAreaDetector id="E0_1_2900m" lane="E0_1" pos="2900" endPos="3000" file="NUL"/>
    <laneAreaDetector id="E0_0_3000m" lane="E0_0" pos="3000" endPos="3100" file="NUL"/>
    <laneAreaDetector id="E0_1_3000m" lane="E0_1" pos="3000" endPos="3100" file="NUL"/>
    <laneAreaDetector id="E0_0_3100m" lane="E0_0" pos="3100" endPos="3200" file="NUL"/>
    <laneAreaDetector id="E0_1_3100m" lane="E0_1" pos="3100" endPos="3200" file="NUL"/>
    <laneAreaDetector id="E0_0_3200m" lane="E0_0" pos="3200" endPos="3300" file="NUL"/>
    <laneAreaDetector id="E0_1_3200m" lane="E0_1" pos="3200" endPos="3300" file="NUL"/>
    <laneAreaDetector id="E0_0_3300m" lane="E0_0" pos="3300" endPos="3400" file="NUL"/>
    <laneAreaDetector id="E0_1_3300m" lane="E0_1" pos="3300" endPos="3400" file="NUL"/>
    <laneAreaDetector id="E0_0_3400m" lane="E0_0" pos="3400" endPos="3500" file="NUL"/>
    <laneAreaDetector id="E0_1_3400m" lane="E0_1" pos="3400" endPos="3500" file="NUL"/>
    <laneAreaDetector id="E0_0_3500m" lane="E0_0" pos="3500" endPos="3600" file="NUL"/>
    <laneAreaDetector id="E0_1_3500m" lane="E0_1" pos="3500" endPos="3600" file="NUL"/>
    <laneAreaDetector id="E0_0_3600m" lane="E0_0" pos="3600" endPos="3700" file="NUL"/>
    <laneAreaDetector id="E0_1_3600m" lane="E0_1" pos="3600" endPos="3700" file="NUL"/>
    <laneAreaDetector id="E0_0_3700m" lane="E0_0" pos="3700" endPos="3800" file="NUL"/>
    <laneAreaDetector id="E0_1_3700m" lane="E0_1" pos="3700" endPos="3800" file="NUL"/>
    <laneAreaDetector id="E0_0_3800m" lane="E0_0" pos="3800" endPos="3900" file="NUL"/>
    <laneAreaDetector id="E0_1_3800m" lane="E0_1" pos="3800" endPos="3900" file="NUL"/>
    <laneAreaDetector id="E0_0_3900m" lane="E0_0" pos="3900" endPos="4000" file="NUL"/>
    <laneAreaDetector id="E0_1_3900m" lane="E0_1" pos="3900" endPos="4000" file="NUL"/>
    <laneAreaDetector id="E0_0_4000m" lane="E0_0" pos="4000" endPos="4100" file="NUL"/>
    <laneAreaDetector id="E0_1_4000m" lane="E0_1" pos="4000" endPos="4100" file="NUL"/>
    <laneAreaDetector id="E0_0_4100m" lane="E0_0" pos="4100" endPos="4200" file="NUL"/>
    <laneAreaDetector id="E0_1_4100m" lane="E0_1" pos="4100" endPos="4200" file="NUL"/>
    <laneAreaDetector id="E0_0_4200m" lane="E0_0" pos="4200" endPos="4300" file="NUL"/>
    <laneAreaDetector id="E0_1_4200m" lane="E0_1" pos="4200" endPos="4300" file="NUL"/>
    <laneAreaDetector id="E0_0_4300m" lane="E0_0" pos="4300" endPos="4400" file="NUL"/>
    <laneAreaDetector id="E0_1_4300m" lane="E0_1" pos="4300" endPos="4400" file="NUL"/>
    <laneAreaDetector id="E0_0_4400m" lane="E0_0" pos="4400" endPos="4500" file="NUL"/>
    <laneAreaDetector id="E0_1_4400m" lane="E0_1" pos="4400" endPos="4500" file="NUL"/>
    <laneAreaDetector id="E0_0_4500m" lane="E0_0" pos="4500" endPos="4600" file="NUL"/>
    <laneAreaDetector id="E0_1_4500m" lane="E0_1" pos="4500" endPos="4600" file="NUL"/>
    <laneAreaDetector id="E0_0_4600m" lane="E0_0" pos="4600" endPos="4700" file="NUL"/>
    <laneAreaDetector id="E0_1_4600m" lane="E0_1" pos="4600" endPos="4700" file="NUL"/>
    <laneAreaDetector id="E0_0_4700m" lane="E0_0" pos="4700" endPos="4800" file="NUL"/>
    <laneAreaDetector id="E0_1_4700m" lane="E0_1" pos="4700" endPos="4800" file="NUL"/>
    <laneAreaDetector id="E0_0_4800m" lane="E0_0" pos="4800" endPos="4900" file="NUL"/>
    <laneAreaDetector id="E0_1_4800m" lane="E0_1" pos="4800" endPos="4900" file="NUL"/>
    <laneAreaDetector id="E0_0_4900m" lane="E0_0" pos="4900" endPos="5000" file="NUL"/>
    <laneAreaDetector id="E0_1_4900m" lane="E0_1" pos="4900" endPos="5000" file="NUL"/>
</additional>